<?xml version="1.0" encoding="UTF-8"?>

<!-- generated on Tue Oct 13 18:11:45 2020 by Eclipse SUMO duarouter Version 1.6.0
<configuration xmlns:xsi="http://www.w3.org/2001/XMLSchema-instance" xsi:noNamespaceSchemaLocation="http://sumo.dlr.de/xsd/duarouterConfiguration.xsd">

    <input>
        <net-file value="9g3qxs.net.xml"/>
        <route-files value="trips.trips.xml"/>
    </input>

    <output>
        <output-file value="9g3qxs-auto.rou.xml"/>
        <alternatives-output value="9g3qxs-auto.rou.alt.xml"/>
    </output>

    <time>
        <begin value="0.0"/>
        <end value="1.0"/>
    </time>

    <report>
        <no-warnings value="true"/>
        <ignore-errors value="true"/>
        <no-step-log value="true"/>
    </report>

</configuration>
-->

<routes xmlns:xsi="http://www.w3.org/2001/XMLSchema-instance" xsi:noNamespaceSchemaLocation="http://sumo.dlr.de/xsd/routes_file.xsd">
    <vehicle id="0" depart="0.00">
        <route edges="24873135#8 24873135#9 616728353#2 616728353#3 616728353#4 616665186#1 616665186#2 616665186#3 616665186#4 616665186#5 616665186#6 616665186#7 616665186#8 616665186#9 616665186#10 616665186#11 616665186#12 616665186#13 616665186#14 345400675#0"/>
    </vehicle>
</routes>
