<?xml version="1.0" encoding="UTF-8"?>

<!-- generated on Sun Dec 20 13:22:27 2020 by Eclipse SUMO polyconvert Version 1.8.0
<configuration xmlns:xsi="http://www.w3.org/2001/XMLSchema-instance" xsi:noNamespaceSchemaLocation="http://sumo.dlr.de/xsd/polyconvertConfiguration.xsd">

    <input>
        <net-file value="9g3qxs.net.xml"/>
        <osm-files value="9g3qxs.osm"/>
        <type-file value="/home/adrian/src/sumo-1.8.0/data/typemap/osmPolyconvert.typ.xml"/>
    </input>

    <output>
        <output-file value="9g3qxs.poly.xml"/>
    </output>

    <processing>
        <poi-layer-offset value="5"/>
    </processing>

</configuration>
-->

<additional xmlns:xsi="http://www.w3.org/2001/XMLSchema-instance" xsi:noNamespaceSchemaLocation="http://sumo.dlr.de/xsd/additional_file.xsd">
    <location netOffset="-482936.89,-2150169.73" convBoundary="-77.71,-729.10,4503.01,1116.27" origBoundary="-99.163303,19.439301,-99.119653,19.455946" projParameter="+proj=utm +zone=14 +ellps=WGS84 +datum=WGS84 +units=m +no_defs"/>

    <poly id="-102757" type="building" color="255,230,230" fill="1" layer="4.00" shape="9.566177,203.058266 120.330745,184.161805 92.582452,27.459929 9.415022,42.948010 9.566177,203.058266"/>
    <poly id="-102861" type="building" color="255,230,230" fill="1" layer="4.00" shape="246.405842,162.432908 349.043364,145.236685 323.960423,6.572400 219.981438,5.165655 246.405842,162.432908"/>
    <poly id="-102884" type="building" color="255,230,230" fill="1" layer="4.00" shape="27.038362,287.606563 16.586496,230.112413 125.460952,211.781561 135.535620,270.591632 27.038362,287.606563"/>
    <poly id="-102944" type="building" color="255,230,230" fill="1" layer="4.00" shape="318.810854,569.589314 285.737351,376.063048 388.561872,357.927463 423.905607,554.458704 318.810854,569.589314"/>
    <poly id="-102960" type="building" color="255,230,230" fill="1" layer="4.00" shape="436.000297,549.937520 401.039633,358.667630 501.593736,338.279719 537.310239,530.300991 436.000297,549.937520"/>
    <poly id="-103049" type="building" color="255,230,230" fill="1" layer="4.00" shape="477.011211,125.386834 450.618490,0.441908 519.054319,0.003256 539.386515,113.490521 477.011211,125.386834"/>
    <poly id="-103053" type="building" color="255,230,230" fill="1" layer="4.00" shape="512.164508,320.981314 482.326659,149.436073 542.812426,138.669058 574.163294,311.528560 512.164508,320.981314"/>
    <poly id="-103057" type="building" color="255,230,230" fill="1" layer="4.00" shape="587.772959,309.636930 557.935125,137.339775 618.231928,126.573178 648.636173,298.682094 587.772959,309.636930"/>
    <poly id="-103061" type="building" color="255,230,230" fill="1" layer="4.00" shape="552.996498,111.786768 531.909732,-0.008513 594.295955,-0.441343 612.158745,100.645329 552.996498,111.786768"/>
    <poly id="-103136" type="building" color="255,230,230" fill="1" layer="4.00" shape="624.065592,97.063948 607.909965,2.177190 715.290121,1.703849 728.782692,79.116242 624.065592,97.063948"/>
    <poly id="-103155" type="building" color="255,230,230" fill="1" layer="4.00" shape="552.067403,543.065966 687.400441,517.761635 699.184558,587.656643 561.180690,585.903034 552.067403,543.065966"/>
    <poly id="-103159" type="building" color="255,230,230" fill="1" layer="4.00" shape="710.903927,586.142682 700.633575,517.749641 801.943295,497.362889 817.524431,585.670620 710.903927,586.142682"/>
    <poly id="-103163" type="building" color="255,230,230" fill="1" layer="4.00" shape="830.377738,583.779881 814.418235,495.096632 916.863149,475.461160 932.069010,567.527792 830.377738,583.779881"/>
    <poly id="-103167" type="building" color="255,230,230" fill="1" layer="4.00" shape="943.022169,554.739561 930.095307,474.321819 1034.429912,453.557788 1051.137549,534.348177 943.022169,554.739561"/>
    <poly id="-103600" type="building" color="255,230,230" fill="1" layer="4.00" shape="776.413008,277.519249 745.820220,104.658406 847.890363,86.337943 878.104613,259.763227 776.413008,277.519249"/>
    <poly id="-103604" type="building" color="255,230,230" fill="1" layer="4.00" shape="740.879813,76.850227 728.901734,1.691537 832.879662,1.973668 842.950446,58.905556 740.879813,76.850227"/>
    <poly id="-103608" type="building" color="255,230,230" fill="1" layer="4.00" shape="856.749715,57.389783 847.248485,3.088309 952.359358,1.866718 960.711569,40.007835 856.749715,57.389783"/>
    <poly id="24873250" type="tourism" color="207,245,201" fill="1" layer="-2.00" shape="547.049218,525.840100 511.984565,335.193844 652.006083,310.346059 685.390253,501.403512 547.049218,525.840100"/>
    <poly id="376898096" type="building" color="255,230,230" fill="1" layer="4.00" shape="83.559618,590.646308 191.903708,587.815373 158.323972,400.591621 50.746628,415.824760 83.559618,590.646308"/>
    <poly id="376901735" type="amenity" color="237,199,199" fill="1" layer="4.00" shape="309.911302,569.268734 203.926279,585.707404 173.264256,398.976323 274.029746,380.040149 309.911302,569.268734"/>
    <poly id="376901735#1" type="building" color="255,230,230" fill="1" layer="4.00" shape="309.911302,569.268734 203.926279,585.707404 173.264256,398.976323 274.029746,380.040149 309.911302,569.268734"/>
    <poly id="376912226" type="amenity" color="237,199,199" fill="1" layer="4.00" shape="270.533801,363.022559 170.447565,381.032986 137.982758,209.496497 240.528417,192.423059 270.533801,363.022559"/>
    <poly id="376912226#1" type="building" color="255,230,230" fill="1" layer="4.00" shape="270.533801,363.022559 170.447565,381.032986 137.982758,209.496497 240.528417,192.423059 270.533801,363.022559"/>
    <poly id="376912561" type="building" color="255,230,230" fill="1" layer="4.00" shape="283.815345,360.873066 388.188122,344.308135 352.638044,172.812082 251.459423,190.177140 283.815345,360.873066"/>
    <poly id="376913272" type="building" color="255,230,230" fill="1" layer="4.00" shape="399.008448,340.665167 498.650223,322.397296 468.457296,152.236240 366.734036,169.378826 399.008448,340.665167"/>
    <poly id="376943800" type="building" color="255,230,230" fill="1" layer="4.00" shape="463.671369,127.513669 363.114713,143.941937 340.348147,9.150083 436.252750,2.710215 463.671369,127.513669"/>
    <poly id="376948446" type="building" color="255,230,230" fill="1" layer="4.00" shape="235.647904,162.069887 206.800737,6.188238 105.326965,24.609194 133.041934,181.818125 235.647904,162.069887"/>
    <poly id="491159204" type="building" color="255,230,230" fill="1" layer="4.00" shape="588.231565,427.840815 586.762902,417.252602 592.192544,409.015019 592.053124,405.761929 601.625106,404.912235 601.775041,408.187446 610.429918,414.564274 612.170638,424.233817 606.247670,432.482908 595.951924,433.853332 588.231565,427.840815"/>
    <poly id="491159204#1" type="historic" color="128,255,128" fill="1" layer="4.00" shape="588.231565,427.840815 586.762902,417.252602 592.192544,409.015019 592.053124,405.761929 601.625106,404.912235 601.775041,408.187446 610.429918,414.564274 612.170638,424.233817 606.247670,432.482908 595.951924,433.853332 588.231565,427.840815"/>
    <poly id="491159204#2" type="tourism" color="207,245,201" fill="1" layer="-2.00" shape="588.231565,427.840815 586.762902,417.252602 592.192544,409.015019 592.053124,405.761929 601.625106,404.912235 601.775041,408.187446 610.429918,414.564274 612.170638,424.233817 606.247670,432.482908 595.951924,433.853332 588.231565,427.840815"/>
    <poly id="496159963" type="building" color="255,230,230" fill="1" layer="4.00" shape="891.278546,255.776582 861.635870,84.082054 965.345545,66.251933 997.257337,239.636058 891.278546,255.776582"/>
    <poly id="571884438" type="building" color="255,230,230" fill="1" layer="4.00" shape="47.262699,402.506847 155.561880,384.734705 138.253019,283.820857 31.664458,300.839800 47.262699,402.506847"/>
    <poly id="571884438#1" type="residential" color="235,235,227" fill="1" layer="-3.00" shape="47.262699,402.506847 155.561880,384.734705 138.253019,283.820857 31.664458,300.839800 47.262699,402.506847"/>
    <poly id="578604041" type="building" color="255,230,230" fill="1" layer="4.00" shape="812.623980,478.371528 913.195578,460.070889 879.368866,273.205663 778.416820,290.014705 812.623980,478.371528"/>
    <poly id="578604049" type="building" color="255,230,230" fill="1" layer="4.00" shape="894.037187,271.311096 927.987501,456.693081 1031.694607,439.476616 998.511337,253.330853 894.037187,271.311096"/>
    <poly id="578604062" type="building" color="255,230,230" fill="1" layer="4.00" shape="799.474090,480.931874 764.804692,292.532037 662.050677,310.546417 696.342005,497.818710 799.474090,480.931874"/>
    <poly id="616415345" type="building" color="255,230,230" fill="1" layer="4.00" shape="628.214902,124.247139 658.527049,298.300873 766.248481,279.570472 734.047362,106.081961 628.214902,124.247139"/>
    <poi id="1446278067" type="tourism" color="207,245,201" layer="3.00" x="507.39" y="394.15"/>
    <poi id="3174030863" type="amenity" color="237,199,199" layer="4.00" x="1006.40" y="14.20"/>
    <poi id="3318159338" type="shop" color="237,199,255" layer="4.00" x="664.56" y="290.54"/>
    <poi id="3318159816" type="shop" color="237,199,255" layer="4.00" x="984.03" y="235.22"/>
    <poi id="3318159817" type="shop" color="237,199,255" layer="4.00" x="989.91" y="293.81"/>
    <poi id="3318165664" type="amenity" color="237,199,199" layer="4.00" x="944.82" y="19.62"/>
    <poi id="3495784949" type="amenity" color="237,199,199" layer="4.00" x="483.39" y="324.86"/>
    <poi id="3802788549" type="amenity" color="237,199,199" layer="4.00" x="211.06" y="578.72"/>
    <poi id="3802797171" type="amenity" color="237,199,199" layer="4.00" x="296.91" y="562.55"/>
    <poi id="3802815210" type="amenity" color="237,199,199" layer="4.00" x="305.82" y="459.28"/>
    <poi id="3802826177" type="shop" color="237,199,255" layer="4.00" x="322.24" y="548.53"/>
    <poi id="3802828471" type="shop" color="237,199,255" layer="4.00" x="407.82" y="543.37"/>
    <poi id="3802837740" type="shop" color="237,199,255" layer="4.00" x="315.90" y="376.33"/>
    <poi id="3802841316" type="shop" color="237,199,255" layer="4.00" x="369.85" y="578.05"/>
    <poi id="3802845842" type="shop" color="237,199,255" layer="4.00" x="519.69" y="550.31"/>
    <poi id="3802858943" type="amenity" color="237,199,199" layer="4.00" x="496.99" y="358.62"/>
    <poi id="3802869338" type="amenity" color="237,199,199" layer="4.00" x="30.57" y="394.08"/>
    <poi id="3802872476" type="shop" color="237,199,255" layer="4.00" x="24.92" y="373.38"/>
    <poi id="3802876147" type="amenity" color="237,199,199" layer="4.00" x="60.36" y="398.77"/>
    <poi id="3802876418" type="amenity" color="237,199,199" layer="4.00" x="58.94" y="386.46"/>
    <poi id="3802879247" type="shop" color="237,199,255" layer="4.00" x="162.55" y="330.99"/>
    <poi id="3802896068" type="amenity" color="237,199,199" layer="4.00" x="324.45" y="350.78"/>
    <poi id="3802896738" type="amenity" color="237,199,199" layer="4.00" x="493.68" y="320.94"/>
    <poi id="3802900817" type="shop" color="237,199,255" layer="4.00" x="426.50" y="335.36"/>
    <poi id="3802903267" type="amenity" color="237,199,199" layer="4.00" x="491.23" y="306.90"/>
    <poi id="3802903307" type="shop" color="237,199,255" layer="4.00" x="488.54" y="295.70"/>
    <poi id="3803144026" type="amenity" color="237,199,199" layer="4.00" x="519.74" y="292.56"/>
    <poi id="3803144669" type="amenity" color="237,199,199" layer="4.00" x="536.08" y="312.69"/>
    <poi id="3803147540" type="shop" color="237,199,255" layer="4.00" x="543.01" y="184.79"/>
    <poi id="3803150200" type="amenity" color="237,199,199" layer="4.00" x="560.05" y="103.56"/>
    <poi id="3803151620" type="amenity" color="237,199,199" layer="4.00" x="609.55" y="294.99"/>
    <poi id="3803154628" type="amenity" color="237,199,199" layer="4.00" x="555.00" y="104.54"/>
    <poi id="3803155139" type="amenity" color="237,199,199" layer="4.00" x="551.37" y="82.77"/>
    <poi id="3803156429" type="amenity" color="237,199,199" layer="4.00" x="542.17" y="31.10"/>
    <poi id="3803160799" type="amenity" color="237,199,199" layer="4.00" x="530.68" y="100.70"/>
    <poi id="3803163300" type="amenity" color="237,199,199" layer="4.00" x="482.08" y="115.81"/>
    <poi id="3803164065" type="amenity" color="237,199,199" layer="4.00" x="553.15" y="96.14"/>
    <poi id="3803167427" type="amenity" color="237,199,199" layer="4.00" x="469.13" y="49.39"/>
    <poi id="3803168064" type="shop" color="237,199,255" layer="4.00" x="474.34" y="67.59"/>
    <poi id="3803171862" type="leisure" color="207,245,201" layer="3.00" x="387.10" y="131.05"/>
    <poi id="3803177632" type="shop" color="237,199,255" layer="4.00" x="338.82" y="108.90"/>
    <poi id="3803177912" type="shop" color="237,199,255" layer="4.00" x="271.96" y="151.72"/>
    <poi id="3803177946" type="shop" color="237,199,255" layer="4.00" x="344.24" y="133.99"/>
    <poi id="3803179232" type="shop" color="237,199,255" layer="4.00" x="320.84" y="16.55"/>
    <poi id="3803200214" type="amenity" color="237,199,199" layer="4.00" x="211.44" y="70.90"/>
    <poi id="3803200534" type="amenity" color="237,199,199" layer="4.00" x="137.00" y="133.23"/>
    <poi id="3803209009" type="tourism" color="207,245,201" layer="3.00" x="43.95" y="119.41"/>
    <poi id="3803219719" type="amenity" color="237,199,199" layer="4.00" x="82.32" y="276.99"/>
    <poi id="3803226199" type="shop" color="237,199,255" layer="4.00" x="42.53" y="483.91"/>
    <poi id="3803227404" type="shop" color="237,199,255" layer="4.00" x="46.66" y="538.10"/>
    <poi id="3803227758" type="amenity" color="237,199,199" layer="4.00" x="142.85" y="591.78"/>
    <poi id="3803231029" type="amenity" color="237,199,199" layer="4.00" x="91.62" y="599.52"/>
    <poi id="4273279993" type="amenity" color="237,199,199" layer="4.00" x="1066.76" y="218.04"/>
    <poi id="4279609590" type="amenity" color="237,199,199" layer="4.00" x="679.28" y="288.41"/>
    <poi id="4774270037" type="amenity" color="237,199,199" layer="4.00" x="704.29" y="517.50"/>
    <poi id="4817259925" type="shop" color="237,199,255" layer="4.00" x="532.11" y="107.76"/>
    <poi id="4817298400" type="shop" color="237,199,255" layer="4.00" x="479.96" y="108.26"/>
    <poi id="4829473467" type="amenity" color="237,199,199" layer="4.00" x="922.56" y="0.04"/>
    <poi id="4829475445" type="shop" color="237,199,255" layer="4.00" x="859.05" y="47.93"/>
    <poi id="4829477155" type="amenity" color="237,199,199" layer="4.00" x="937.88" y="32.75"/>
    <poi id="4829477706" type="shop" color="237,199,255" layer="4.00" x="947.45" y="31.90"/>
    <poi id="4829481692" type="tourism" color="207,245,201" layer="3.00" x="972.27" y="192.27"/>
    <poi id="4829488537" type="shop" color="237,199,255" layer="4.00" x="1076.36" y="259.45"/>
    <poi id="4829500735" type="amenity" color="237,199,199" layer="4.00" x="667.84" y="313.26"/>
    <poi id="4829502453" type="amenity" color="237,199,199" layer="4.00" x="661.28" y="280.21"/>
    <poi id="4829507131" type="amenity" color="237,199,199" layer="4.00" x="670.10" y="321.24"/>
    <poi id="4829512616" type="amenity" color="237,199,199" layer="4.00" x="670.96" y="327.39"/>
    <poi id="4829513606" type="amenity" color="237,199,199" layer="4.00" x="683.04" y="377.57"/>
    <poi id="4829532642" type="amenity" color="237,199,199" layer="4.00" x="691.59" y="418.05"/>
    <poi id="4829538865" type="shop" color="237,199,255" layer="4.00" x="679.87" y="520.23"/>
    <poi id="4829539623" type="amenity" color="237,199,199" layer="4.00" x="668.55" y="523.69"/>
    <poi id="4829542314" type="amenity" color="237,199,199" layer="4.00" x="592.03" y="539.32"/>
    <poi id="4829548202" type="tourism" color="207,245,201" layer="3.00" x="562.77" y="543.82"/>
    <poi id="4829550074" type="amenity" color="237,199,199" layer="4.00" x="494.44" y="342.67"/>
    <poi id="4829559353" type="shop" color="237,199,255" layer="4.00" x="519.99" y="315.88"/>
    <poi id="4829574820" type="amenity" color="237,199,199" layer="4.00" x="560.47" y="253.71"/>
    <poi id="4829580937" type="amenity" color="237,199,199" layer="4.00" x="603.82" y="94.43"/>
    <poi id="4829591842" type="amenity" color="237,199,199" layer="4.00" x="540.43" y="145.34"/>
    <poi id="4829610821" type="amenity" color="237,199,199" layer="4.00" x="627.61" y="90.49"/>
    <poi id="4829754677" type="amenity" color="237,199,199" layer="4.00" x="430.25" y="25.05"/>
    <poi id="4829764797" type="shop" color="237,199,255" layer="4.00" x="1099.33" y="383.04"/>
    <poi id="4829764798" type="shop" color="237,199,255" layer="4.00" x="1116.54" y="470.99"/>
    <poi id="4829765112" type="amenity" color="237,199,199" layer="4.00" x="1087.95" y="324.78"/>
    <poi id="4829767292" type="tourism" color="207,245,201" layer="3.00" x="1107.28" y="176.01"/>
    <poi id="4831708219" type="amenity" color="237,199,199" layer="4.00" x="1117.81" y="595.23"/>
    <poi id="4831708521" type="amenity" color="237,199,199" layer="4.00" x="1058.94" y="271.78"/>
    <poi id="4831708523" type="amenity" color="237,199,199" layer="4.00" x="1127.02" y="244.27"/>
    <poi id="4831708524" type="amenity" color="237,199,199" layer="4.00" x="1054.96" y="237.09"/>
    <poi id="4831708525" type="amenity" color="237,199,199" layer="4.00" x="1071.85" y="236.51"/>
    <poi id="4831708526" type="amenity" color="237,199,199" layer="4.00" x="1139.74" y="592.96"/>
    <poi id="4831708527" type="shop" color="237,199,255" layer="4.00" x="1108.61" y="412.79"/>
    <poi id="4831708528" type="amenity" color="237,199,199" layer="4.00" x="1142.79" y="246.49"/>
    <poi id="4831708529" type="amenity" color="237,199,199" layer="4.00" x="1057.79" y="252.73"/>
    <poi id="4831709527" type="amenity" color="237,199,199" layer="4.00" x="1116.54" y="493.36"/>
    <poi id="4831710230" type="amenity" color="237,199,199" layer="4.00" x="1133.43" y="493.35"/>
    <poi id="4831710859" type="amenity" color="237,199,199" layer="4.00" x="1120.49" y="506.79"/>
    <poi id="4831727123" type="shop" color="237,199,255" layer="4.00" x="1084.29" y="281.25"/>
    <poi id="4831727125" type="shop" color="237,199,255" layer="4.00" x="1116.52" y="446.37"/>
    <poi id="4831727126" type="shop" color="237,199,255" layer="4.00" x="1094.34" y="190.57"/>
    <poi id="4831727127" type="amenity" color="237,199,199" layer="4.00" x="1135.70" y="209.94"/>
    <poi id="4831727128" type="shop" color="237,199,255" layer="4.00" x="1136.67" y="275.05"/>
    <poi id="4831727129" type="shop" color="237,199,255" layer="4.00" x="1128.40" y="534.77"/>
    <poi id="4831727130" type="amenity" color="237,199,199" layer="4.00" x="1070.69" y="195.65"/>
    <poi id="4831727133" type="amenity" color="237,199,199" layer="4.00" x="1134.65" y="559.95"/>
    <poi id="4831727134" type="amenity" color="237,199,199" layer="4.00" x="1146.23" y="318.14"/>
    <poi id="4831742040" type="amenity" color="237,199,199" layer="4.00" x="1142.77" y="222.42"/>
    <poi id="4831746525" type="shop" color="237,199,255" layer="4.00" x="14.58" y="196.59"/>
    <poi id="4831760420" type="amenity" color="237,199,199" layer="4.00" x="35.81" y="283.88"/>
    <poi id="4831760922" type="amenity" color="237,199,199" layer="4.00" x="354.97" y="211.83"/>
    <poi id="4831762123" type="amenity" color="237,199,199" layer="4.00" x="381.12" y="189.41"/>
    <poi id="4831764277" type="amenity" color="237,199,199" layer="4.00" x="471.51" y="208.36"/>
    <poi id="4831765750" type="amenity" color="237,199,199" layer="4.00" x="740.02" y="54.73"/>
    <poi id="4831765751" type="amenity" color="237,199,199" layer="4.00" x="743.40" y="68.99"/>
    <poi id="4831769173" type="leisure" color="207,245,201" layer="3.00" x="245.21" y="67.78"/>
    <poi id="4831769173#1" type="sport" color="79,230,125" layer="3.00" x="245.21" y="67.78"/>
    <poi id="4831770472" type="amenity" color="237,199,199" layer="4.00" x="210.75" y="89.92"/>
    <poi id="4831772878" type="amenity" color="237,199,199" layer="4.00" x="319.18" y="4.97"/>
    <poi id="4831773439" type="amenity" color="237,199,199" layer="4.00" x="296.68" y="148.19"/>
    <poi id="4831778285" type="amenity" color="237,199,199" layer="4.00" x="43.04" y="190.41"/>
    <poi id="4832923460" type="amenity" color="237,199,199" layer="4.00" x="433.73" y="450.75"/>
    <poi id="4833025504" type="shop" color="237,199,255" layer="4.00" x="647.94" y="86.88"/>
    <poi id="4833060229" type="amenity" color="237,199,199" layer="4.00" x="642.68" y="461.54"/>
    <poi id="4833060231" type="amenity" color="237,199,199" layer="4.00" x="572.31" y="474.34"/>
    <poi id="4833060233" type="amenity" color="237,199,199" layer="4.00" x="626.71" y="364.72"/>
    <poi id="4833060252" type="amenity" color="237,199,199" layer="4.00" x="558.99" y="378.64"/>
    <poi id="4835772863" type="amenity" color="237,199,199" layer="4.00" x="773.02" y="173.16"/>
    <poi id="4835772894" type="shop" color="237,199,255" layer="4.00" x="1050.07" y="202.01"/>
    <poi id="4876879600" type="amenity" color="237,199,199" layer="4.00" x="1131.77" y="40.91"/>
    <poi id="4876879601" type="amenity" color="237,199,199" layer="4.00" x="1091.06" y="-1.74"/>
    <poi id="4878752783" type="amenity" color="237,199,199" layer="4.00" x="634.59" y="291.88"/>
    <poi id="4878761112" type="amenity" color="237,199,199" layer="4.00" x="286.11" y="355.73"/>
    <poi id="4878761113" type="amenity" color="237,199,199" layer="4.00" x="261.37" y="387.10"/>
    <poi id="4878761114" type="amenity" color="237,199,199" layer="4.00" x="296.27" y="382.59"/>
    <poi id="4878761115" type="amenity" color="237,199,199" layer="4.00" x="253.86" y="337.99"/>
    <poi id="4878778414" type="amenity" color="237,199,199" layer="4.00" x="509.99" y="411.78"/>
    <poi id="4878796435" type="amenity" color="237,199,199" layer="4.00" x="576.56" y="541.57"/>
    <poi id="4878796436" type="shop" color="237,199,255" layer="4.00" x="23.13" y="336.11"/>
    <poi id="4878830052" type="shop" color="237,199,255" layer="4.00" x="943.59" y="142.72"/>
    <poi id="4878830057" type="amenity" color="237,199,199" layer="4.00" x="978.56" y="209.70"/>
    <poi id="4878830060" type="shop" color="237,199,255" layer="4.00" x="986.97" y="330.19"/>
    <poi id="4878830063" type="shop" color="237,199,255" layer="4.00" x="950.93" y="160.61"/>
    <poi id="5084839941" type="shop" color="237,199,255" layer="4.00" x="1002.11" y="384.63"/>
    <poi id="5084840129" type="amenity" color="237,199,199" layer="4.00" x="1040.10" y="544.35"/>
    <poi id="5084840726" type="shop" color="237,199,255" layer="4.00" x="1018.72" y="466.78"/>
    <poi id="5282817525" type="shop" color="237,199,255" layer="4.00" x="1148.60" y="449.21"/>
    <poi id="5543459635" type="amenity" color="237,199,199" layer="4.00" x="753.30" y="255.27"/>
    <poi id="5828046415" type="shop" color="237,199,255" layer="4.00" x="939.84" y="309.70"/>
    <poi id="5828046420" type="shop" color="237,199,255" layer="4.00" x="807.96" y="384.07"/>
    <poi id="5828046421" type="shop" color="237,199,255" layer="4.00" x="881.43" y="383.71"/>
    <poi id="5828046422" type="amenity" color="237,199,199" layer="4.00" x="693.75" y="313.01"/>
    <poi id="6319099249" type="amenity" color="237,199,199" layer="4.00" x="758.70" y="242.34"/>
    <poi id="6319118786" type="amenity" color="237,199,199" layer="4.00" x="706.70" y="497.38"/>
    <poi id="6319133834" type="amenity" color="237,199,199" layer="4.00" x="478.01" y="98.30"/>
    <poi id="6340271530" type="amenity" color="237,199,199" layer="4.00" x="21.33" y="323.62"/>
    <poi id="6644579929" type="amenity" color="237,199,199" layer="4.00" x="641.38" y="528.70"/>
    <poi id="6644579930" type="leisure" color="207,245,201" layer="3.00" x="664.77" y="565.66"/>
    <poi id="6644579931" type="amenity" color="237,199,199" layer="4.00" x="646.08" y="559.43"/>
    <poi id="6644579932" type="shop" color="237,199,255" layer="4.00" x="659.11" y="538.45"/>
    <poi id="6644579933" type="shop" color="237,199,255" layer="4.00" x="482.82" y="161.41"/>
    <poi id="6644579938" type="amenity" color="237,199,199" layer="4.00" x="1136.67" y="233.76"/>
    <poi id="6644579939" type="amenity" color="237,199,199" layer="4.00" x="1134.27" y="241.42"/>
    <poi id="6644579940" type="shop" color="237,199,255" layer="4.00" x="1127.34" y="216.54"/>
    <poi id="6644579941" type="shop" color="237,199,255" layer="4.00" x="1102.43" y="355.68"/>
    <poi id="6721943232" type="amenity" color="237,199,199" layer="4.00" x="591.89" y="325.48"/>
    <poi id="6747906684" type="amenity" color="237,199,199" layer="4.00" x="529.97" y="94.33"/>
    <poi id="7140188685" type="amenity" color="237,199,199" layer="4.00" x="647.37" y="288.98"/>
    <poi id="7393200305" type="tourism" color="207,245,201" layer="3.00" x="1114.12" y="362.36"/>
</additional>
