<?xml version="1.0" encoding="UTF-8"?>

<!-- generated on Fri Dec 11 12:23:23 2020 by Eclipse SUMO duarouter Version 1.8.0
<configuration xmlns:xsi="http://www.w3.org/2001/XMLSchema-instance" xsi:noNamespaceSchemaLocation="http://sumo.dlr.de/xsd/duarouterConfiguration.xsd">

    <input>
        <net-file value="9g3qxs.net.xml"/>
        <route-files value="trips.trips.xml"/>
    </input>

    <output>
        <output-file value="9g3qxs.rou.xml"/>
        <alternatives-output value="9g3qxs.rou.alt.xml"/>
    </output>

    <time>
        <begin value="0"/>
        <end value="300"/>
    </time>

    <report>
        <no-warnings value="true"/>
        <ignore-errors value="true"/>
        <no-step-log value="true"/>
    </report>

</configuration>
-->

<routes xmlns:xsi="http://www.w3.org/2001/XMLSchema-instance" xsi:noNamespaceSchemaLocation="http://sumo.dlr.de/xsd/routes_file.xsd">
    <vehicle id="0" depart="0.00">
        <route edges="24872941#1 616665186#2 220713052#1 24873135#6 24873135#7 24873135#8 616728353#2 616728353#3"/>
    </vehicle>
    <vehicle id="1" depart="0.60">
        <route edges="616728344#4 24873029#1 24873135#1 24873135#2 24873135#3 24873135#4"/>
    </vehicle>
    <vehicle id="2" depart="1.20">
        <route edges="616416990#1 24873135#2 831172010#2 616665186#6 616665186#7 616665186#8 843223887 345400675"/>
    </vehicle>
    <vehicle id="3" depart="1.80">
        <route edges="616665186#5 616665186#6 616416990#1 616416990#2 616728344#4 616728344#5"/>
    </vehicle>
    <vehicle id="5" depart="3.00">
        <route edges="616728353#2 616728353#3 616665186#0 616665186#1 616665186#2 616665186#3 616665186#4 616665186#5 616665186#6 616665186#7 616665186#8 843223887 345400674#0 345400674#1"/>
    </vehicle>
    <vehicle id="8" depart="4.80">
        <route edges="24873135#2 831172010#2 831172010#3"/>
    </vehicle>
    <vehicle id="11" depart="6.60">
        <route edges="831172010#1 24873135#3 24873135#4 24873135#5 24873135#6 24873135#7 616665181#3 24873225"/>
    </vehicle>
    <vehicle id="12" depart="7.20">
        <route edges="24873135#1 24873135#2 831172010#2 616665186#6 616665186#7 616665186#8 843223887 345400674#0"/>
    </vehicle>
    <vehicle id="13" depart="7.80">
        <route edges="220713052#0 616665186#3 616665186#4 616665186#5 616665186#6 616416990#1 24873135#2"/>
    </vehicle>
    <vehicle id="14" depart="8.40">
        <route edges="325152995#0 616665186#4 616665186#5 616665186#6 616416990#1"/>
    </vehicle>
    <vehicle id="15" depart="9.00">
        <route edges="24873135#2 24873135#3"/>
    </vehicle>
    <vehicle id="16" depart="9.60">
        <route edges="24873135#1 24873135#2 831172010#2 616665186#6 616665186#7 616665186#8 345400676"/>
    </vehicle>
    <vehicle id="18" depart="10.80">
        <route edges="616728353#2 616728353#3 616665186#0 616665181#1"/>
    </vehicle>
    <vehicle id="19" depart="11.40">
        <route edges="616665186#4 616665186#5 616665186#6 616416990#1 616416990#2 616728344#4 616728344#5 67830147#2 24873135#0"/>
    </vehicle>
    <vehicle id="21" depart="12.60">
        <route edges="24872941#0 24873135#7 24873135#8 24873135#9"/>
    </vehicle>
    <vehicle id="22" depart="13.20">
        <route edges="616728344#1 616728344#2 831172010#1 24873135#3 24873135#4 24873135#5 24873135#6 24873135#7 616665181#3 24873225 616728344#0"/>
    </vehicle>
    <vehicle id="23" depart="13.80">
        <route edges="831172010#1 831172010#2 616665186#6 616665186#7 616665186#8 843223887 345400674#0"/>
    </vehicle>
    <vehicle id="24" depart="14.40">
        <route edges="616728353#2 616728353#3 616665186#0 616665186#1 616665186#2 616665186#3 616665186#4 616665186#5 616665186#6"/>
    </vehicle>
    <vehicle id="25" depart="15.00">
        <route edges="24873135#6 24873135#7 616665181#3"/>
    </vehicle>
    <vehicle id="26" depart="15.60">
        <route edges="67830147#1 67830147#2 24873135#0 24873135#1 24873135#2 24873135#3 24873135#4 24873135#5 24873135#6 24873135#7 24873135#8 616728353#2 616728353#3"/>
    </vehicle>
    <vehicle id="27" depart="16.20">
        <route edges="616416990#1 24873135#2 24873135#3 24873135#4 24873135#5 24873135#6 24873135#7 616665181#3"/>
    </vehicle>
    <vehicle id="28" depart="16.80">
        <route edges="220713052#1 24873135#6 24872941#1 616665186#2 616665186#3 616665186#4 24872818#1 24873135#4"/>
    </vehicle>
    <vehicle id="29" depart="17.40">
        <route edges="616728353#0 616728353#1 616728353#2 616728353#3 616665186#0 616665186#1 616665186#2 616665186#3 325152995#1"/>
    </vehicle>
    <vehicle id="31" depart="18.60">
        <route edges="616728344#0 616728344#1 616728344#2 831172010#1 831172010#2 616665186#6"/>
    </vehicle>
    <vehicle id="32" depart="19.20">
        <route edges="24873225 24872941#0 24872941#1 616665186#2 616665186#3 616665186#4 616665186#5 616665186#6 616665186#7 616665186#8 843223887 345400674#0 345400674#1"/>
    </vehicle>
    <vehicle id="33" depart="19.80">
        <route edges="616416990#1 616416990#2 616728344#4"/>
    </vehicle>
    <vehicle id="34" depart="20.40">
        <route edges="616416990#2 616728344#4 24873029#1 24873135#1 24873135#2 24873135#3 24873135#4 325152995#0"/>
    </vehicle>
    <vehicle id="36" depart="21.60">
        <route edges="220713052#1 24873135#6 24873135#7 616665181#3 24873225 616728344#0"/>
    </vehicle>
    <vehicle id="38" depart="22.80">
        <route edges="24873260 616728353#1 616728353#2 616728353#3 616665186#0 616665186#1 616665186#2 616665186#3 616665186#4 616665186#5 616665186#6 616665186#7 24873029#3"/>
    </vehicle>
    <vehicle id="39" depart="23.40">
        <route edges="616416990#1 616416990#2 616728344#4 616728344#5 67830147#2 859810603#0"/>
    </vehicle>
    <vehicle id="41" depart="24.60">
        <route edges="67830147#0 67830147#1 67830147#2 24873135#0 24873135#1 24873135#2 24873135#3"/>
    </vehicle>
    <vehicle id="42" depart="25.20">
        <route edges="616416990#2 616728344#4 24873029#1 24873135#1 24873135#2 831172010#2 831172010#3"/>
    </vehicle>
    <vehicle id="43" depart="25.80">
        <route edges="616665181#3 24873225 24872941#0 24872941#1 616665186#2 616665186#3 616665186#4 616665186#5 616665186#6 616665186#7 616665186#8 843223887 345400675"/>
    </vehicle>
    <vehicle id="47" depart="28.20">
        <route edges="67830147#1 67830147#2 24873135#0 24873135#1 24873135#2 24873135#3 24873135#4 24866873 616728344#2"/>
    </vehicle>
    <vehicle id="48" depart="28.80">
        <route edges="616728353#1 616728353#2 616728353#3 616665186#0 616665186#1 616665186#2 616665186#3 616665186#4 616665186#5 616665186#6 616416990#1 616416990#2"/>
    </vehicle>
    <vehicle id="49" depart="29.40">
        <route edges="616665181#2 24873135#8 616728353#2 616728353#3 616665186#0 616665186#1 616665186#2 616665186#3 616665186#4 616665186#5 616665186#6 616665186#7 616665186#8 843223887 345400674#0"/>
    </vehicle>
    <vehicle id="51" depart="30.60">
        <route edges="616665181#2 616665181#3 24873225 616728344#0 616728344#1 616728344#2 616728344#3 616728344#4 24873029#1 24873135#1"/>
    </vehicle>
    <vehicle id="53" depart="31.80">
        <route edges="24873200#0"/>
    </vehicle>
    <vehicle id="54" depart="32.40">
        <route edges="616665181#0 616665186#1"/>
    </vehicle>
    <vehicle id="55" depart="33.00">
        <route edges="616665186#1 616665186#2 616665186#3 616665186#4 616665186#5 616665186#6 616665186#7 616665186#8 843223887 345400675"/>
    </vehicle>
    <vehicle id="56" depart="33.60">
        <route edges="220713052#0 616665186#3 616665186#4 616665186#5 616665186#6 616416990#1 24873135#2 24873135#3"/>
    </vehicle>
    <vehicle id="57" depart="34.20">
        <route edges="24873029#1 24873135#1 24873135#2 24873135#3 24873135#4 24873135#5 24873135#6 24873135#7 24873135#8 616728353#2 616728353#3 616665186#0 616665181#1 616665181#2"/>
    </vehicle>
    <vehicle id="58" depart="34.80">
        <route edges="67830147#0 67830147#1 67830147#2 24873135#0 24873135#1 24873135#2 24873135#3 24873135#4 24866873 616728351"/>
    </vehicle>
    <vehicle id="59" depart="35.40">
        <route edges="616728353#0 616728353#1"/>
    </vehicle>
    <vehicle id="60" depart="36.00">
        <route edges="24873135#3 24873135#4 24873135#5 24873135#6 24873135#7 24873135#8 616728353#2"/>
    </vehicle>
    <vehicle id="63" depart="37.80">
        <route edges="616728344#3 616728344#4 24873029#1 24873135#1 24873135#2 24873135#3 24873135#4"/>
    </vehicle>
    <vehicle id="64" depart="38.40">
        <route edges="24872818#1 24873135#4 24873135#5 24873135#6 24872941#1 616665186#2"/>
    </vehicle>
    <vehicle id="65" depart="39.00">
        <route edges="24873200#0 616728353#3 616665186#0 616665186#1 616665186#2 616665186#3 616665186#4 24872818#1 24873135#4 24866873"/>
    </vehicle>
    <vehicle id="66" depart="39.60">
        <route edges="24873029#0 24873029#1 24873135#1 616416990#2 616416990#3"/>
    </vehicle>
    <vehicle id="67" depart="40.20">
        <route edges="24873029#1 24873135#1 24873135#2 24873135#3 24873135#4 24873135#5"/>
    </vehicle>
    <vehicle id="68" depart="40.80">
        <route edges="616728344#1 616728344#2 831172010#1 831172010#2 616665186#6 616665186#7 616665186#8 843223887 345400675"/>
    </vehicle>
    <vehicle id="69" depart="41.40">
        <route edges="24873135#7 24873135#8 616728353#2 616728353#3 616665186#0 616665186#1 616665186#2 616665186#3 616665186#4 616665186#5 616665186#6 616665186#7 616665186#8 345400676"/>
    </vehicle>
    <vehicle id="70" depart="42.00">
        <route edges="220713052#0 616665186#3 616665186#4 24872818#1 24873135#4 325152995#0"/>
    </vehicle>
    <vehicle id="71" depart="42.60">
        <route edges="24873352 67830147#1 67830147#2 24873135#0"/>
    </vehicle>
    <vehicle id="72" depart="43.20">
        <route edges="24872818#1 24873135#4 24873135#5 24873135#6 24872941#1 744252705"/>
    </vehicle>
    <vehicle id="73" depart="43.80">
        <route edges="616416990#2 616728344#4 24873029#1 24873135#1"/>
    </vehicle>
    <vehicle id="76" depart="45.60">
        <route edges="24872941#1 616665186#2 220713052#1 24873135#6 24873135#7 616665181#3 24873225 616728344#0"/>
    </vehicle>
    <vehicle id="77" depart="46.20">
        <route edges="24873029#0 24873029#1 24873135#1 24873135#2 24873135#3 24873135#4 24873135#5 24873135#6 24873135#7 616665181#3 24873225 616728344#0"/>
    </vehicle>
    <vehicle id="79" depart="47.40">
        <route edges="24873135#1 616416990#2 616728344#4 616728344#5 67830147#2 859810603#0"/>
    </vehicle>
    <vehicle id="80" depart="48.00">
        <route edges="616728353#0 616728353#1 616728353#2 616728353#3 616665186#0 616665186#1 616665186#2 616665186#3 616665186#4 616665186#5 616665186#6 616416990#1 616416990#2"/>
    </vehicle>
    <vehicle id="81" depart="48.60">
        <route edges="24873135#1 24873135#2 24873135#3 24873135#4 325152995#0 616665186#4"/>
    </vehicle>
    <vehicle id="82" depart="49.20">
        <route edges="24873260 616728353#1 616728353#2 616728353#3 616665186#0 616665181#1 616665181#2"/>
    </vehicle>
    <vehicle id="83" depart="49.80">
        <route edges="24873135#7 24873135#8 616728353#2 616728353#3 616665186#0 616665186#1 616665186#2"/>
    </vehicle>
    <vehicle id="84" depart="50.40">
        <route edges="220713052#2 616728344#1 616728344#2 831172010#1 24873135#3 24873135#4 24873135#5 24873135#6 24873135#7"/>
    </vehicle>
    <vehicle id="86" depart="51.60">
        <route edges="24873135#6 24873135#7 24873135#8 616728353#2 616728353#3"/>
    </vehicle>
    <vehicle id="87" depart="52.20">
        <route edges="24873135#7 616665181#3 24873225 616728344#0 616728344#1 616728344#2 831172010#1 831172010#2"/>
    </vehicle>
    <vehicle id="88" depart="52.80">
        <route edges="616728344#3 616728344#4 24873029#1 24873135#1 24873135#2 24873135#3 24873135#4 325152995#0 325152995#1"/>
    </vehicle>
    <vehicle id="90" depart="54.00">
        <route edges="67830147#1 67830147#2 24873135#0 24873135#1 24873135#2 24873135#3 24873135#4 24873135#5 24873135#6 24872941#1 616665186#2 220713052#1"/>
    </vehicle>
    <vehicle id="91" depart="54.60">
        <route edges="616728353#1 616728353#2 616728353#3 616665186#0 616665186#1 616665186#2 616665186#3 616665186#4 616665186#5 616665186#6 616665186#7 616665186#8 843223887"/>
    </vehicle>
    <vehicle id="92" depart="55.20">
        <route edges="616665181#2 24873135#8 616728353#2 616728353#3 616665186#0 616665186#1 616665186#2 616665186#3 616665186#4 616665186#5 616665186#6 616665186#7 24873029#3"/>
    </vehicle>
    <vehicle id="93" depart="55.80">
        <route edges="67830147#0 67830147#1 67830147#2 859810603#0"/>
    </vehicle>
    <vehicle id="94" depart="56.40">
        <route edges="616728344#0 616728344#1 616728344#2 616728344#3 616728344#4 24873029#1 24873135#1 616416990#2"/>
    </vehicle>
    <vehicle id="95" depart="57.00">
        <route edges="24873260 616728353#1 616728353#2 616728353#3 616665186#0 616665181#1 24873200#0"/>
    </vehicle>
    <vehicle id="96" depart="57.60">
        <route edges="24873135#0 24873135#1 24873135#2 831172010#2 616665186#6"/>
    </vehicle>
    <vehicle id="97" depart="58.20">
        <route edges="325152995#0 616665186#4 616665186#5 616665186#6 616416990#1 616416990#2 616728344#4 616728344#5 67830147#2 24873135#0"/>
    </vehicle>
    <vehicle id="98" depart="58.80">
        <route edges="24872818#1 24873135#4 325152995#0 616665186#4 616665186#5"/>
    </vehicle>
    <vehicle id="99" depart="59.40">
        <route edges="24873135#6 24872941#1 616665186#2 616665186#3 616665186#4 616665186#5 616665186#6 616416990#1"/>
    </vehicle>
    <vehicle id="102" depart="61.20">
        <route edges="24873135#0 24873135#1 24873135#2 24873135#3 24873135#4 24873135#5 24873135#6 24873135#7 24873135#8 24873135#9"/>
    </vehicle>
    <vehicle id="104" depart="62.40">
        <route edges="24873135#8 616728353#2 616728353#3 616665186#0 616665186#1 616665186#2 616665186#3 616665186#4 616665186#5 616665186#6 616416990#1 24873135#2"/>
    </vehicle>
    <vehicle id="106" depart="63.60">
        <route edges="831172010#1 24873135#3 24873135#4 24873135#5 24873135#6 24873135#7 24873135#8 616728353#2 616728353#3 616665186#0 616665181#1 24873200#0"/>
    </vehicle>
    <vehicle id="107" depart="64.20">
        <route edges="67830147#1 67830147#2 24873135#0 24873135#1 24873135#2 831172010#2 616665186#6 616665186#7"/>
    </vehicle>
    <vehicle id="108" depart="64.80">
        <route edges="616416990#0 616416990#1 616416990#2 616728344#4 616728344#5 67830147#2 859810603#0 859810603#1"/>
    </vehicle>
    <vehicle id="109" depart="65.40">
        <route edges="24873135#2 24873135#3 24873135#4 24873135#5 220713052#2 616728344#1"/>
    </vehicle>
    <vehicle id="110" depart="66.00">
        <route edges="24872818#0 616665186#5 616665186#6 616665186#7 24873029#3"/>
    </vehicle>
    <vehicle id="111" depart="66.60">
        <route edges="831172010#0 616728344#3 616728344#4 24873029#1 24873135#1 24873135#2"/>
    </vehicle>
    <vehicle id="112" depart="67.20">
        <route edges="616728344#3 616728344#4 24873029#1 24873135#1 24873135#2 24873135#3 24873135#4 24873135#5 24873135#6 24873135#7 616665181#3"/>
    </vehicle>
    <vehicle id="113" depart="67.80">
        <route edges="616728353#2 24873200#1"/>
    </vehicle>
    <vehicle id="114" depart="68.40">
        <route edges="24873135#8 616728353#2 616728353#3 616665186#0 616665186#1 616665186#2 220713052#1 24873135#6 24873135#7"/>
    </vehicle>
    <vehicle id="115" depart="69.00">
        <route edges="67830147#0 67830147#1 67830147#2 24873135#0 24873135#1 24873135#2 24873135#3 24873135#4 24873135#5 24873135#6 24873135#7 24873135#8 616728353#2 616728353#3 616665186#0"/>
    </vehicle>
    <vehicle id="116" depart="69.60">
        <route edges="831172010#2 616665186#6 616416990#1 616416990#2 616728344#4 616728344#5 67830147#2"/>
    </vehicle>
    <vehicle id="118" depart="70.80">
        <route edges="24872818#1 24873135#4 24873135#5 24873135#6 24872941#1 616665186#2 220713052#1"/>
    </vehicle>
    <vehicle id="121" depart="72.60">
        <route edges="24873135#8 616728353#2 616728353#3 616665186#0 616665186#1"/>
    </vehicle>
    <vehicle id="122" depart="73.20">
        <route edges="616728344#5 67830147#2 24873135#0 24873135#1 24873135#2 24873135#3 24873135#4 24873135#5 24873135#6 24873135#7 616665181#3 24873225"/>
    </vehicle>
    <vehicle id="123" depart="73.80">
        <route edges="616665181#2 24873135#8 616728353#2 616728353#3 616665186#0 616665186#1 616665186#2 616665186#3 616665186#4 616665186#5 616665186#6 616416990#1 24873135#2"/>
    </vehicle>
    <vehicle id="124" depart="74.40">
        <route edges="24872818#0 24872818#1 24873135#4 24873135#5"/>
    </vehicle>
    <vehicle id="125" depart="75.00">
        <route edges="67830147#2 24873135#0 24873135#1 24873135#2 24873135#3 24873135#4 24873135#5 24873135#6 24873135#7 24873135#8 616728353#2 616728353#3 616665186#0 616665181#1"/>
    </vehicle>
    <vehicle id="126" depart="75.60">
        <route edges="831172010#1 831172010#2 616665186#6 616665186#7 616665186#8 843223887 345400675"/>
    </vehicle>
    <vehicle id="127" depart="76.20">
        <route edges="24873135#4 24866873 616728344#2 616728344#3 616728344#4 616728344#5"/>
    </vehicle>
    <vehicle id="129" depart="77.40">
        <route edges="616665186#6 616416990#1 24873135#2 24873135#3 24873135#4 325152995#0 616665186#4 24872818#1"/>
    </vehicle>
    <vehicle id="130" depart="78.00">
        <route edges="24872941#0 24872941#1 616665186#2 616665186#3 616665186#4 616665186#5 616665186#6 616416990#1 616416990#2 616728344#4 616728344#5 67830147#2"/>
    </vehicle>
    <vehicle id="131" depart="78.60">
        <route edges="220713052#1 220713052#2 616728344#1 616728344#2 831172010#1 24873135#3"/>
    </vehicle>
    <vehicle id="133" depart="79.80">
        <route edges="24872941#0 24872941#1 616665186#2 616665186#3 616665186#4 616665186#5 616665186#6 616665186#7 24873029#3"/>
    </vehicle>
    <vehicle id="134" depart="80.40">
        <route edges="24873135#2 24873135#3 24873135#4 24866873 616728344#2"/>
    </vehicle>
    <vehicle id="135" depart="81.00">
        <route edges="24872818#1 24873135#4 24866873 616728344#2 831172010#1"/>
    </vehicle>
    <vehicle id="136" depart="81.60">
        <route edges="24873260 616728353#1 616728353#2 616728353#3 616665186#0 616665186#1 616665186#2 616665186#3 616665186#4 616665186#5 616665186#6 616416990#1 616416990#2 616728344#4 616728344#5 67830147#2 859810603#0"/>
    </vehicle>
    <vehicle id="137" depart="82.20">
        <route edges="831172010#0 831172010#1 24873135#3 24873135#4 24873135#5 24873135#6 24873135#7"/>
    </vehicle>
    <vehicle id="139" depart="83.40">
        <route edges="24872818#1 24873135#4 325152995#0 616665186#4"/>
    </vehicle>
    <vehicle id="142" depart="85.20">
        <route edges="616665186#0 616665186#1 616665186#2 616665186#3 616665186#4 616665186#5 616665186#6 616665186#7 616665186#8 843223887 345400675"/>
    </vehicle>
    <vehicle id="143" depart="85.80">
        <route edges="24873135#7 24873135#8 616728353#2 616728353#3 616665186#0 616665186#1 616665186#2 220713052#1 220713052#2"/>
    </vehicle>
    <vehicle id="144" depart="86.40">
        <route edges="831172010#0 616728344#3 616728344#4 616728344#5 67830147#2 859810603#0"/>
    </vehicle>
    <vehicle id="146" depart="87.60">
        <route edges="24873135#1 24873135#2 24873135#3 24873135#4 24873135#5 24873135#6 24873135#7 24873135#8 616728353#2 616728353#3 616665186#0 616665186#1"/>
    </vehicle>
    <vehicle id="150" depart="90.00">
        <route edges="24873135#6 24872941#1 616665186#2 616665186#3 616665186#4 24872818#1 24873135#4"/>
    </vehicle>
    <vehicle id="151" depart="90.60">
        <route edges="24866873 616728344#2 831172010#1 24873135#3 24873135#4 24873135#5 24873135#6"/>
    </vehicle>
    <vehicle id="153" depart="91.80">
        <route edges="616665186#5 616665186#6 616416990#1 24873135#2 24873135#3 24873135#4 24873135#5 24873135#6 24872941#1 616665186#2 616665186#3"/>
    </vehicle>
    <vehicle id="154" depart="92.40">
        <route edges="831172010#2 616665186#6 616416990#1 24873135#2 24873135#3 24873135#4 325152995#0"/>
    </vehicle>
    <vehicle id="155" depart="93.00">
        <route edges="24873135#6 24873135#7 24873135#8 24873135#9"/>
    </vehicle>
    <vehicle id="156" depart="93.60">
        <route edges="24873135#7 24873135#8 616728353#2 616728353#3"/>
    </vehicle>
    <vehicle id="157" depart="94.20">
        <route edges="67830147#2 24873135#0 24873135#1 24873135#2 24873135#3 24873135#4 24873135#5 24873135#6 24873135#7"/>
    </vehicle>
    <vehicle id="159" depart="95.40">
        <route edges="616665181#3"/>
    </vehicle>
    <vehicle id="161" depart="96.60">
        <route edges="24873135#2 24873135#3 24873135#4 24866873"/>
    </vehicle>
    <vehicle id="162" depart="97.20">
        <route edges="616665181#1 24873200#0 616728353#3 616665186#0 616665186#1 616665186#2 616665186#3 616665186#4 24872818#1 24873135#4 24866873"/>
    </vehicle>
    <vehicle id="163" depart="97.80">
        <route edges="24866873 616728344#2 831172010#1 24873135#3 24873135#4 24873135#5 24873135#6 24872941#1 616665186#2"/>
    </vehicle>
    <vehicle id="164" depart="98.40">
        <route edges="24873135#5 220713052#2 616728344#1 616728344#2 616728344#3 616728344#4 616728344#5"/>
    </vehicle>
    <vehicle id="166" depart="99.60">
        <route edges="24873029#0 24873029#1 24873135#1 24873135#2 831172010#2 616665186#6 616416990#1"/>
    </vehicle>
    <vehicle id="167" depart="100.20">
        <route edges="616728353#0 616728353#1 616728353#2 616728353#3 616665186#0 616665186#1 616665186#2 616665186#3 616665186#4 24872818#1 24873135#4 24866873"/>
    </vehicle>
    <vehicle id="168" depart="100.80">
        <route edges="831172010#2 616665186#6 616665186#7 24873029#3"/>
    </vehicle>
    <vehicle id="169" depart="101.40">
        <route edges="616728344#4 616728344#5 67830147#2 859810603#0 859810603#1"/>
    </vehicle>
    <vehicle id="170" depart="102.00">
        <route edges="616728353#1 616728353#2 616728353#3 616665186#0 616665181#1 616665181#2 24873135#8"/>
    </vehicle>
    <vehicle id="171" depart="102.60">
        <route edges="24872818#1 24873135#4 325152995#0 616665186#4 616665186#5 616665186#6 616416990#1 616416990#2"/>
    </vehicle>
    <vehicle id="172" depart="103.20">
        <route edges="831172010#0 831172010#1 24873135#3 24873135#4 24873135#5 24873135#6 24873135#7"/>
    </vehicle>
    <vehicle id="173" depart="103.80">
        <route edges="67830147#2 24873135#0 24873135#1 616416990#2 616728344#4 24873029#1"/>
    </vehicle>
    <vehicle id="175" depart="105.00">
        <route edges="24873135#7 24873135#8 616728353#2 616728353#3 616665186#0 616665186#1 744252705"/>
    </vehicle>
    <vehicle id="176" depart="105.60">
        <route edges="616728353#0 616728353#1 616728353#2 616728353#3 616665186#0 616665186#1 744252705"/>
    </vehicle>
    <vehicle id="177" depart="106.20">
        <route edges="616728353#2 616728353#3 616665186#0 616665186#1 616665186#2 220713052#1 220713052#2 616728344#1 616728344#2"/>
    </vehicle>
    <vehicle id="179" depart="107.40">
        <route edges="325152995#0 616665186#4 616665186#5 616665186#6 616416990#1 616416990#2 616728344#4 24873029#1 24873029#2"/>
    </vehicle>
    <vehicle id="180" depart="108.00">
        <route edges="616728344#1 616728344#2 831172010#1 24873135#3 24873135#4 325152995#0 616665186#4 616665186#5"/>
    </vehicle>
    <vehicle id="181" depart="108.60">
        <route edges="24873135#3 24873135#4 24873135#5 220713052#2"/>
    </vehicle>
    <vehicle id="184" depart="110.40">
        <route edges="616728353#3 616665186#0 616665186#1 616665186#2 616665186#3 616665186#4 616665186#5 616665186#6 616665186#7 616665186#8 843223887 345400675"/>
    </vehicle>
    <vehicle id="185" depart="111.00">
        <route edges="24873260 616728353#1 616728353#2 616728353#3 616665186#0 616665181#1 24873200#0"/>
    </vehicle>
    <vehicle id="187" depart="112.20">
        <route edges="616665186#4 616665186#5 616665186#6 616665186#7 616665186#8 843223887 345400674#0"/>
    </vehicle>
    <vehicle id="188" depart="112.80">
        <route edges="616665181#2 24873135#8 616728353#2 616728353#3 616665186#0 616665186#1 616665186#2 220713052#1 220713052#2"/>
    </vehicle>
    <vehicle id="189" depart="113.40">
        <route edges="24873200#0 616728353#3 616665186#0 616665186#1 616665186#2 616665186#3 616665186#4 616665186#5 616665186#6 616416990#1 616416990#2 616728344#4 24873029#1"/>
    </vehicle>
    <vehicle id="190" depart="114.00">
        <route edges="24872941#0 24872941#1 616665186#2 616665186#3 616665186#4 24872818#1 24873135#4 24873135#5"/>
    </vehicle>
    <vehicle id="191" depart="114.60">
        <route edges="616728353#2 616728353#3 616665186#0 616665186#1 616665186#2 616665186#3 616665186#4 24872818#1 24873135#4 325152995#0"/>
    </vehicle>
    <vehicle id="192" depart="115.20">
        <route edges="24873260 616728353#1 616728353#2 616728353#3 616665186#0"/>
    </vehicle>
    <vehicle id="194" depart="116.40">
        <route edges="616665181#0 616665186#1 616665186#2 616665186#3 616665186#4 616665186#5 616665186#6 616416990#1"/>
    </vehicle>
    <vehicle id="195" depart="117.00">
        <route edges="616665186#5 616665186#6 616665186#7 616665186#8 843223887 345400674#0 345400674#1"/>
    </vehicle>
    <vehicle id="197" depart="118.20">
        <route edges="24873135#2 831172010#2 616665186#6 616416990#1"/>
    </vehicle>
    <vehicle id="198" depart="118.80">
        <route edges="616416990#0 616416990#1 24873135#2"/>
    </vehicle>
    <vehicle id="199" depart="119.40">
        <route edges="24873352 67830147#1 67830147#2 24873135#0 24873135#1 24873135#2 24873135#3 24873135#4 24873135#5 24873135#6 24873135#7 24873135#8 616728353#2 616728353#3 616665186#0 616665181#1"/>
    </vehicle>
    <vehicle id="200" depart="120.00">
        <route edges="831172010#0 831172010#1"/>
    </vehicle>
    <vehicle id="201" depart="120.60">
        <route edges="24873135#4 24873135#5 24873135#6 24872941#1 616665186#2 616665186#3"/>
    </vehicle>
    <vehicle id="202" depart="121.20">
        <route edges="220713052#1 24873135#6 24872941#1 616665186#2 616665186#3 616665186#4 24872818#1 24873135#4 24866873"/>
    </vehicle>
    <vehicle id="204" depart="122.40">
        <route edges="24873029#0 24873029#1 24873135#1 24873135#2 24873135#3 24873135#4 24866873 616728344#2 616728344#3"/>
    </vehicle>
    <vehicle id="205" depart="123.00">
        <route edges="67830147#1 67830147#2 24873135#0 24873135#1 24873135#2 24873135#3 24873135#4 24873135#5 24873135#6 24873135#7 24873135#8"/>
    </vehicle>
    <vehicle id="207" depart="124.20">
        <route edges="24873225 24872941#0 24872941#1 616665186#2 616665186#3 616665186#4 616665186#5 616665186#6 616665186#7 616665186#8"/>
    </vehicle>
    <vehicle id="208" depart="124.80">
        <route edges="616728344#2 831172010#1 24873135#3 24873135#4 24873135#5 24873135#6 24873135#7 616665181#3"/>
    </vehicle>
    <vehicle id="209" depart="125.40">
        <route edges="616728353#3 616665186#0 616665186#1 744252705"/>
    </vehicle>
    <vehicle id="211" depart="126.60">
        <route edges="24873029#1 24873135#1 24873135#2 24873135#3 24873135#4"/>
    </vehicle>
    <vehicle id="212" depart="127.20">
        <route edges="24873135#1 24873135#2 24873135#3 24873135#4 24873135#5 24873135#6 24873135#7 24873135#8 616728353#2 616728353#3 616665186#0 616665181#1"/>
    </vehicle>
    <vehicle id="213" depart="127.80">
        <route edges="616728344#3 616728344#4 24873029#1 24873135#1 24873135#2 24873135#3 24873135#4 24873135#5 220713052#2"/>
    </vehicle>
    <vehicle id="215" depart="129.00">
        <route edges="24873200#0 616728353#3 616665186#0 616665186#1 616665186#2 616665186#3 616665186#4 616665186#5 616665186#6 616416990#1 616416990#2"/>
    </vehicle>
    <vehicle id="216" depart="129.60">
        <route edges="24873029#1 24873135#1 24873135#2 24873135#3 24873135#4 24873135#5 220713052#2 616728344#1"/>
    </vehicle>
    <vehicle id="217" depart="130.20">
        <route edges="220713052#1 220713052#2 616728344#1 616728344#2 616728344#3 616728344#4 616728344#5 67830147#2 859810603#0"/>
    </vehicle>
    <vehicle id="218" depart="130.80">
        <route edges="616728353#0 616728353#1 616728353#2 616728353#3 616665186#0 616665186#1 616665186#2"/>
    </vehicle>
    <vehicle id="219" depart="131.40">
        <route edges="24873135#4 24866873 616728344#2 831172010#1"/>
    </vehicle>
    <vehicle id="221" depart="132.60">
        <route edges="616728344#4 24873029#1 24873135#1 24873135#2 24873135#3 24873135#4 24873135#5 24873135#6 24873135#7 24873135#8 616728353#2"/>
    </vehicle>
    <vehicle id="222" depart="133.20">
        <route edges="616665186#5 616665186#6 616665186#7 616665186#8"/>
    </vehicle>
    <vehicle id="225" depart="135.00">
        <route edges="616728353#0 616728353#1 616728353#2 616728353#3 616665186#0 616665186#1 616665186#2 616665186#3 616665186#4 616665186#5 616665186#6 616665186#7 616665186#8 843223887 345400674#0 345400674#1"/>
    </vehicle>
    <vehicle id="226" depart="135.60">
        <route edges="24873029#1 24873135#1 24873135#2 24873135#3 24873135#4 24873135#5 24873135#6 24873135#7 24873135#8 24873135#9"/>
    </vehicle>
    <vehicle id="227" depart="136.20">
        <route edges="24872941#0 24872941#1 744252705"/>
    </vehicle>
    <vehicle id="229" depart="137.40">
        <route edges="616665186#0 616665186#1 616665186#2 616665186#3 325152995#1"/>
    </vehicle>
    <vehicle id="230" depart="138.00">
        <route edges="24872941#0 24873135#7"/>
    </vehicle>
    <vehicle id="231" depart="138.60">