<?xml version="1.0" encoding="UTF-8"?>

<!-- generated on Wed Dec 30 20:20:03 2020 by Eclipse SUMO netconvert Version 1.8.0
<configuration xmlns:xsi="http://www.w3.org/2001/XMLSchema-instance" xsi:noNamespaceSchemaLocation="http://sumo.dlr.de/xsd/netconvertConfiguration.xsd">

    <input>
        <osm-files value="9g3qxs.osm"/>
    </input>

    <output>
        <output-file value="9g3qxs.net.xml"/>
    </output>

    <projection>
        <proj.utm value="true"/>
    </projection>

    <report>
        <aggregate-warnings value="5"/>
    </report>

</configuration>
-->

<net version="1.6" junctionCornerDetail="5" limitTurnSpeed="5.50" xmlns:xsi="http://www.w3.org/2001/XMLSchema-instance" xsi:noNamespaceSchemaLocation="http://sumo.dlr.de/xsd/net_file.xsd">

    <location netOffset="-482936.89,-2150169.73" convBoundary="0.00,0.00,1123.84,596.60" origBoundary="-99.162563,19.445860,-99.151851,19.451249" projParameter="+proj=utm +zone=14 +ellps=WGS84 +datum=WGS84 +units=m +no_defs"/>

    <type id="highway.bridleway" priority="1" numLanes="1" speed="2.78" allow="pedestrian" oneway="1" width="2.00"/>
    <type id="highway.bus_guideway" priority="1" numLanes="1" speed="27.78" allow="bus" oneway="1"/>
    <type id="highway.cycleway" priority="1" numLanes="1" speed="8.33" allow="bicycle" oneway="0" width="1.00"/>
    <type id="highway.footway" priority="1" numLanes="1" speed="2.78" allow="pedestrian" oneway="1" width="2.00"/>
    <type id="highway.ford" priority="1" numLanes="1" speed="2.78" allow="army" oneway="0"/>
    <type id="highway.living_street" priority="2" numLanes="1" speed="2.78" disallow="tram rail_urban rail rail_electric rail_fast ship" oneway="0"/>
    <type id="highway.motorway" priority="14" numLanes="2" speed="39.44" allow="private emergency authority army vip passenger hov taxi bus coach delivery truck trailer motorcycle evehicle custom1 custom2" oneway="1"/>
    <type id="highway.motorway_link" priority="9" numLanes="1" speed="22.22" allow="private emergency authority army vip passenger hov taxi bus coach delivery truck trailer motorcycle evehicle custom1 custom2" oneway="1"/>
    <type id="highway.path" priority="1" numLanes="1" speed="2.78" allow="pedestrian bicycle" oneway="0" width="2.00"/>
    <type id="highway.pedestrian" priority="1" numLanes="1" speed="2.78" allow="pedestrian" oneway="1" width="2.00"/>
    <type id="highway.primary" priority="12" numLanes="2" speed="27.78" disallow="tram rail_urban rail rail_electric rail_fast ship" oneway="0"/>
    <type id="highway.primary_link" priority="7" numLanes="1" speed="22.22" disallow="tram rail_urban rail rail_electric rail_fast ship" oneway="0"/>
    <type id="highway.raceway" priority="15" numLanes="2" speed="83.33" allow="vip" oneway="0"/>
    <type id="highway.residential" priority="3" numLanes="1" speed="13.89" disallow="tram rail_urban rail rail_electric rail_fast ship" oneway="0"/>
    <type id="highway.secondary" priority="11" numLanes="1" speed="27.78" disallow="tram rail_urban rail rail_electric rail_fast ship" oneway="0"/>
    <type id="highway.secondary_link" priority="6" numLanes="1" speed="22.22" disallow="tram rail_urban rail rail_electric rail_fast ship" oneway="0"/>
    <type id="highway.service" priority="1" numLanes="1" speed="5.56" allow="pedestrian delivery bicycle" oneway="0"/>
    <type id="highway.stairs" priority="1" numLanes="1" speed="1.39" allow="pedestrian" oneway="1" width="2.00"/>
    <type id="highway.step" priority="1" numLanes="1" speed="1.39" allow="pedestrian" oneway="1" width="2.00"/>
    <type id="highway.steps" priority="1" numLanes="1" speed="1.39" allow="pedestrian" oneway="1" width="2.00"/>
    <type id="highway.tertiary" priority="10" numLanes="1" speed="22.22" disallow="tram rail_urban rail rail_electric rail_fast ship" oneway="0"/>
    <type id="highway.tertiary_link" priority="5" numLanes="1" speed="22.22" disallow="tram rail_urban rail rail_electric rail_fast ship" oneway="0"/>
    <type id="highway.track" priority="1" numLanes="1" speed="5.56" allow="pedestrian motorcycle moped bicycle" oneway="0"/>
    <type id="highway.trunk" priority="13" numLanes="2" speed="27.78" disallow="pedestrian bicycle tram rail_urban rail rail_electric rail_fast ship" oneway="0"/>
    <type id="highway.trunk_link" priority="8" numLanes="1" speed="22.22" disallow="pedestrian bicycle tram rail_urban rail rail_electric rail_fast ship" oneway="0"/>
    <type id="highway.unclassified" priority="4" numLanes="1" speed="13.89" disallow="tram rail_urban rail rail_electric rail_fast ship" oneway="0"/>
    <type id="highway.unsurfaced" priority="1" numLanes="1" speed="8.33" disallow="tram rail_urban rail rail_electric rail_fast ship" oneway="0"/>
    <type id="railway.highspeed" priority="21" numLanes="1" speed="69.44" allow="rail_fast" oneway="1"/>
    <type id="railway.light_rail" priority="19" numLanes="1" speed="27.78" allow="rail_urban" oneway="1"/>
    <type id="railway.preserved" priority="16" numLanes="1" speed="27.78" allow="rail" oneway="1"/>
    <type id="railway.rail" priority="20" numLanes="1" speed="44.44" allow="rail" oneway="1"/>
    <type id="railway.subway" priority="18" numLanes="1" speed="27.78" allow="rail_urban" oneway="1"/>
    <type id="railway.tram" priority="17" numLanes="1" speed="13.89" allow="tram" oneway="1"/>

    <edge id=":-102345_0" function="internal">
        <lane id=":-102345_0_0" index="0" disallow="tram rail_urban rail rail_electric rail_fast ship" speed="2.78" length="4.67" shape="0.22,564.96 -1.08,564.34 -1.58,563.60 -1.30,562.75 -0.22,561.79"/>
    </edge>
    <edge id=":268620409_0" function="internal">
        <lane id=":268620409_0_0" index="0" disallow="pedestrian bicycle tram rail_urban rail rail_electric rail_fast ship" speed="6.63" length="9.13" shape="990.83,36.44 991.70,38.82 993.10,40.38 995.01,41.13 997.46,41.06"/>
    </edge>
    <edge id=":268620409_1" function="internal">
        <lane id=":268620409_1_0" index="0" disallow="pedestrian bicycle tram rail_urban rail rail_electric rail_fast ship" speed="7.44" length="11.77" shape="990.83,36.44 991.99,40.19 993.58,42.73 995.58,44.07 998.01,44.21"/>
    </edge>
    <edge id=":268620409_2" function="internal">
        <lane id=":268620409_2_0" index="0" disallow="pedestrian bicycle tram rail_urban rail rail_electric rail_fast ship" speed="13.89" length="23.98" shape="990.83,36.44 995.19,60.11"/>
        <lane id=":268620409_2_1" index="1" disallow="pedestrian bicycle tram rail_urban rail rail_electric rail_fast ship" speed="13.89" length="23.98" shape="987.69,37.06 992.04,60.64"/>
        <lane id=":268620409_2_2" index="2" disallow="pedestrian bicycle tram rail_urban rail rail_electric rail_fast ship" speed="13.89" length="23.98" shape="984.55,37.68 988.88,61.17"/>
    </edge>
    <edge id=":268620409_5" function="internal">
        <lane id=":268620409_5_0" index="0" disallow="tram rail_urban rail rail_electric rail_fast ship" speed="27.78" length="19.62" shape="980.17,44.08 985.64,44.15 989.37,45.73 993.11,47.31 998.57,47.36"/>
        <lane id=":268620409_5_1" index="1" disallow="tram rail_urban rail rail_electric rail_fast ship" speed="27.78" length="19.62" shape="980.71,47.23 986.18,47.30 989.92,48.89 993.66,50.46 999.13,50.51"/>
        <lane id=":268620409_5_2" index="2" disallow="tram rail_urban rail rail_electric rail_fast ship" speed="27.78" length="19.62" shape="980.71,47.23 986.45,47.76 990.20,50.46 993.95,53.15 999.69,53.66"/>
    </edge>
    <edge id=":268620409_8" function="internal">
        <lane id=":268620409_8_0" index="0" disallow="pedestrian bicycle tram rail_urban rail rail_electric rail_fast ship" speed="9.26" length="19.41" shape="981.24,50.39 986.60,50.22 990.71,51.79 993.57,55.08 995.19,60.11"/>
    </edge>
    <edge id=":268620409_9" function="internal">
        <lane id=":268620409_9_0" index="0" disallow="pedestrian bicycle tram rail_urban rail rail_electric rail_fast ship" speed="8.00" length="14.24" shape="981.78,53.54 985.72,53.41 988.74,54.56 990.85,56.97 992.04,60.64"/>
    </edge>
    <edge id=":268620409_10" function="internal">
        <lane id=":268620409_10_0" index="0" disallow="pedestrian bicycle tram rail_urban rail rail_electric rail_fast ship" speed="6.51" length="9.07" shape="982.32,56.69 984.84,56.61 986.78,57.33 988.13,58.85 988.88,61.17"/>
    </edge>
    <edge id=":270218727_0" function="internal">
        <lane id=":270218727_0_0" index="0" disallow="tram rail_urban rail rail_electric rail_fast ship" speed="6.54" length="9.08" shape="128.96,184.66 129.73,187.01 131.08,188.56 133.00,189.29 135.50,189.22"/>
    </edge>
    <edge id=":270218727_1" function="internal">
        <lane id=":270218727_1_0" index="0" disallow="tram rail_urban rail rail_electric rail_fast ship" speed="8.03" length="14.23" shape="125.81,185.21 127.02,188.91 129.13,191.33 132.14,192.48 136.04,192.37"/>
    </edge>
    <edge id=":270218727_2" function="internal">
        <lane id=":270218727_2_0" index="0" disallow="tram rail_urban rail rail_electric rail_fast ship" speed="8.69" length="16.87" shape="125.81,185.21 127.26,190.28 129.55,193.69 132.65,195.44 136.58,195.53"/>
    </edge>
    <edge id=":270218727_3" function="internal">
        <lane id=":270218727_3_0" index="0" disallow="tram rail_urban rail rail_electric rail_fast ship" speed="13.89" length="24.25" shape="125.81,185.21 127.44,191.59 129.47,196.75 131.50,201.91 133.13,208.28"/>
    </edge>
    <edge id=":270218727_4" function="internal">
        <lane id=":270218727_4_0" index="0" disallow="tram rail_urban rail rail_electric rail_fast ship" speed="27.78" length="14.43" shape="121.27,191.66 135.50,189.22"/>
        <lane id=":270218727_4_1" index="1" disallow="tram rail_urban rail rail_electric rail_fast ship" speed="27.78" length="14.43" shape="121.82,194.82 136.04,192.37"/>
        <lane id=":270218727_4_2" index="2" disallow="tram rail_urban rail rail_electric rail_fast ship" speed="27.78" length="14.43" shape="122.36,197.97 136.58,195.53"/>
        <lane id=":270218727_4_3" index="3" disallow="tram rail_urban rail rail_electric rail_fast ship" speed="27.78" length="14.43" shape="122.90,201.12 137.12,198.68"/>
        <lane id=":270218727_4_4" index="4" disallow="tram rail_urban rail rail_electric rail_fast ship" speed="27.78" length="14.43" shape="123.44,204.28 137.67,201.83"/>
    </edge>
    <edge id=":270218727_9" function="internal">
        <lane id=":270218727_9_0" index="0" disallow="tram rail_urban rail rail_electric rail_fast ship" speed="6.53" length="9.08" shape="123.44,204.28 125.94,204.20 127.86,204.94 129.20,206.48 129.98,208.83"/>
    </edge>
    <edge id=":270219302_0" function="internal">
        <lane id=":270219302_0_0" index="0" disallow="tram rail_urban rail rail_electric rail_fast ship" speed="13.89" length="24.15" shape="474.43,149.65 469.80,126.02"/>
        <lane id=":270219302_0_1" index="1" disallow="tram rail_urban rail rail_electric rail_fast ship" speed="13.89" length="24.15" shape="477.58,149.10 472.93,125.33"/>
    </edge>
    <edge id=":270219302_2" function="internal">
        <lane id=":270219302_2_0" index="0" disallow="tram rail_urban rail rail_electric rail_fast ship" speed="8.10" length="14.57" shape="477.58,149.10 477.04,143.87 477.44,140.00 478.78,137.48 481.07,136.33"/>
    </edge>
    <edge id=":270219302_3" function="internal">
        <lane id=":270219302_3_0" index="0" disallow="tram rail_urban rail rail_electric rail_fast ship" speed="7.32" length="11.73" shape="477.58,149.10 477.28,145.25 477.84,142.36 479.29,140.44 481.61,139.48"/>
    </edge>
    <edge id=":270219302_4" function="internal">
        <lane id=":270219302_4_0" index="0" disallow="tram rail_urban rail rail_electric rail_fast ship" speed="6.51" length="9.03" shape="477.58,149.10 477.51,146.63 478.25,144.73 479.80,143.40 482.15,142.64"/>
    </edge>
    <edge id=":270219302_5" function="internal">
        <lane id=":270219302_5_0" index="0" disallow="tram rail_urban rail rail_electric rail_fast ship" speed="6.41" length="9.04" shape="465.43,132.52 467.80,131.76 469.32,130.42 469.98,128.50 469.80,126.02"/>
    </edge>
    <edge id=":270219302_6" function="internal">
        <lane id=":270219302_6_0" index="0" disallow="tram rail_urban rail rail_electric rail_fast ship" speed="27.78" length="14.77" shape="465.43,132.52 479.99,130.02"/>
        <lane id=":270219302_6_1" index="1" disallow="tram rail_urban rail rail_electric rail_fast ship" speed="27.78" length="14.77" shape="465.97,135.68 480.53,133.17"/>
        <lane id=":270219302_6_2" index="2" disallow="tram rail_urban rail rail_electric rail_fast ship" speed="27.78" length="14.77" shape="466.51,138.83 481.07,136.33"/>
        <lane id=":270219302_6_3" index="3" disallow="tram rail_urban rail rail_electric rail_fast ship" speed="27.78" length="14.77" shape="467.05,141.98 481.61,139.48"/>
        <lane id=":270219302_6_4" index="4" disallow="tram rail_urban rail rail_electric rail_fast ship" speed="27.78" length="14.77" shape="467.59,145.14 482.15,142.64"/>
    </edge>
    <edge id=":270281687_0" function="internal">
        <lane id=":270281687_0_0" index="0" disallow="tram rail_urban rail rail_electric rail_fast ship" speed="6.56" length="9.16" shape="357.14,145.45 357.92,147.80 359.28,149.34 361.23,150.08 363.77,150.00"/>
    </edge>
    <edge id=":270281687_1" function="internal">
        <lane id=":270281687_1_0" index="0" disallow="tram rail_urban rail rail_electric rail_fast ship" speed="8.04" length="14.30" shape="353.99,146.01 355.21,149.70 357.33,152.12 360.37,153.27 364.31,153.15"/>
    </edge>
    <edge id=":270281687_2" function="internal">
        <lane id=":270281687_2_0" index="0" disallow="tram rail_urban rail rail_electric rail_fast ship" speed="8.71" length="16.94" shape="353.99,146.01 355.45,151.08 357.75,154.48 360.88,156.22 364.85,156.30"/>
    </edge>
    <edge id=":270281687_3" function="internal">
        <lane id=":270281687_3_0" index="0" disallow="tram rail_urban rail rail_electric rail_fast ship" speed="13.89" length="24.28" shape="353.99,146.01 355.63,152.38 357.68,157.54 359.75,162.70 361.44,169.07"/>
    </edge>
    <edge id=":270281687_4" function="internal">
        <lane id=":270281687_4_0" index="0" disallow="tram rail_urban rail rail_electric rail_fast ship" speed="27.78" length="14.52" shape="349.45,152.46 363.77,150.00"/>
        <lane id=":270281687_4_1" index="1" disallow="tram rail_urban rail rail_electric rail_fast ship" speed="27.78" length="14.52" shape="350.00,155.61 364.31,153.15"/>
        <lane id=":270281687_4_2" index="2" disallow="tram rail_urban rail rail_electric rail_fast ship" speed="27.78" length="14.52" shape="350.54,158.76 364.85,156.30"/>
        <lane id=":270281687_4_3" index="3" disallow="tram rail_urban rail rail_electric rail_fast ship" speed="27.78" length="14.52" shape="351.08,161.92 365.39,159.46"/>
        <lane id=":270281687_4_4" index="4" disallow="tram rail_urban rail rail_electric rail_fast ship" speed="27.78" length="14.52" shape="351.62,165.07 365.93,162.61"/>
    </edge>
    <edge id=":270281687_9" function="internal">
        <lane id=":270281687_9_0" index="0" disallow="tram rail_urban rail rail_electric rail_fast ship" speed="6.60" length="9.21" shape="351.62,165.07 354.15,164.99 356.11,165.73 357.49,167.29 358.30,169.66"/>
    </edge>
    <edge id=":270282139_0" function="internal">
        <lane id=":270282139_0_0" index="0" disallow="tram rail_urban rail rail_electric rail_fast ship" speed="6.55" length="9.10" shape="547.32,112.77 548.10,115.12 549.45,116.67 551.38,117.40 553.88,117.33"/>
    </edge>
    <edge id=":270282139_1" function="internal">
        <lane id=":270282139_1_0" index="0" disallow="tram rail_urban rail rail_electric rail_fast ship" speed="8.03" length="14.23" shape="544.17,113.33 545.39,117.02 547.51,119.44 550.52,120.60 554.42,120.48"/>
    </edge>
    <edge id=":270282139_2" function="internal">
        <lane id=":270282139_2_0" index="0" disallow="tram rail_urban rail rail_electric rail_fast ship" speed="8.70" length="16.87" shape="544.17,113.33 545.64,118.40 547.93,121.80 551.03,123.55 554.96,123.64"/>
    </edge>
    <edge id=":270282139_3" function="internal">
        <lane id=":270282139_3_0" index="0" disallow="tram rail_urban rail rail_electric rail_fast ship" speed="13.89" length="24.23" shape="544.17,113.33 545.82,119.70 547.86,124.85 549.89,130.01 551.52,136.38"/>
    </edge>
    <edge id=":270282139_4" function="internal">
        <lane id=":270282139_4_0" index="0" disallow="tram rail_urban rail rail_electric rail_fast ship" speed="27.78" length="14.43" shape="539.65,119.77 553.88,117.33"/>
        <lane id=":270282139_4_1" index="1" disallow="tram rail_urban rail rail_electric rail_fast ship" speed="27.78" length="14.43" shape="540.20,122.93 554.42,120.48"/>
        <lane id=":270282139_4_2" index="2" disallow="tram rail_urban rail rail_electric rail_fast ship" speed="27.78" length="14.43" shape="540.74,126.08 554.96,123.64"/>
        <lane id=":270282139_4_3" index="3" disallow="tram rail_urban rail rail_electric rail_fast ship" speed="27.78" length="14.43" shape="541.28,129.23 555.50,126.79"/>
        <lane id=":270282139_4_4" index="4" disallow="tram rail_urban rail rail_electric rail_fast ship" speed="27.78" length="14.43" shape="541.82,132.39 556.04,129.94"/>
    </edge>
    <edge id=":270282139_9" function="internal">
        <lane id=":270282139_9_0" index="0" disallow="tram rail_urban rail rail_electric rail_fast ship" speed="6.53" length="9.08" shape="541.82,132.39 544.32,132.31 546.24,133.04 547.59,134.58 548.36,136.93"/>
    </edge>
    <edge id=":270283177_0" function="internal">
        <lane id=":270283177_0_0" index="0" disallow="tram rail_urban rail rail_electric rail_fast ship" speed="13.89" length="24.03" shape="621.60,124.38 617.43,100.72"/>
        <lane id=":270283177_0_1" index="1" disallow="tram rail_urban rail rail_electric rail_fast ship" speed="13.89" length="24.03" shape="624.75,123.83 620.58,100.16"/>
    </edge>
    <edge id=":270283177_2" function="internal">
        <lane id=":270283177_2_0" index="0" disallow="tram rail_urban rail rail_electric rail_fast ship" speed="8.09" length="14.58" shape="624.75,123.83 624.18,118.59 624.57,114.72 625.92,112.20 628.22,111.05"/>
    </edge>
    <edge id=":270283177_3" function="internal">
        <lane id=":270283177_3_0" index="0" disallow="tram rail_urban rail rail_electric rail_fast ship" speed="7.32" length="11.73" shape="624.75,123.83 624.43,119.97 624.99,117.08 626.43,115.16 628.76,114.20"/>
    </edge>
    <edge id=":270283177_4" function="internal">
        <lane id=":270283177_4_0" index="0" disallow="tram rail_urban rail rail_electric rail_fast ship" speed="6.50" length="9.03" shape="624.75,123.83 624.67,121.35 625.40,119.45 626.95,118.12 629.30,117.35"/>
    </edge>
    <edge id=":270283177_5" function="internal">
        <lane id=":270283177_5_0" index="0" disallow="tram rail_urban rail rail_electric rail_fast ship" speed="6.50" length="9.03" shape="612.88,107.19 615.23,106.43 616.78,105.10 617.51,103.19 617.43,100.72"/>
    </edge>
    <edge id=":270283177_6" function="internal">
        <lane id=":270283177_6_0" index="0" disallow="tram rail_urban rail rail_electric rail_fast ship" speed="27.78" length="14.47" shape="612.88,107.19 627.13,104.74"/>
        <lane id=":270283177_6_1" index="1" disallow="tram rail_urban rail rail_electric rail_fast ship" speed="27.78" length="14.47" shape="613.42,110.34 627.68,107.89"/>
        <lane id=":270283177_6_2" index="2" disallow="tram rail_urban rail rail_electric rail_fast ship" speed="27.78" length="14.47" shape="613.96,113.50 628.22,111.05"/>
        <lane id=":270283177_6_3" index="3" disallow="tram rail_urban rail rail_electric rail_fast ship" speed="27.78" length="14.47" shape="614.50,116.65 628.76,114.20"/>
        <lane id=":270283177_6_4" index="4" disallow="tram rail_urban rail rail_electric rail_fast ship" speed="27.78" length="14.47" shape="615.05,119.81 629.30,117.35"/>
    </edge>
    <edge id=":270283541_0" function="internal">
        <lane id=":270283541_0_0" index="0" disallow="tram rail_urban rail rail_electric rail_fast ship" speed="13.89" length="24.05" shape="244.06,189.27 239.81,165.60"/>
        <lane id=":270283541_0_1" index="1" disallow="tram rail_urban rail rail_electric rail_fast ship" speed="13.89" length="24.05" shape="247.21,188.71 242.96,165.03"/>
    </edge>
    <edge id=":270283541_2" function="internal">
        <lane id=":270283541_2_0" index="0" disallow="tram rail_urban rail rail_electric rail_fast ship" speed="8.09" length="14.59" shape="247.21,188.71 246.63,183.47 247.01,179.60 248.36,177.08 250.66,175.92"/>
    </edge>
    <edge id=":270283541_3" function="internal">
        <lane id=":270283541_3_0" index="0" disallow="tram rail_urban rail rail_electric rail_fast ship" speed="7.31" length="11.74" shape="247.21,188.71 246.87,184.85 247.43,181.96 248.87,180.04 251.20,179.08"/>
    </edge>
    <edge id=":270283541_4" function="internal">
        <lane id=":270283541_4_0" index="0" disallow="tram rail_urban rail rail_electric rail_fast ship" speed="6.49" length="9.03" shape="247.21,188.71 247.12,186.23 247.85,184.33 249.39,182.99 251.75,182.23"/>
    </edge>
    <edge id=":270283541_5" function="internal">
        <lane id=":270283541_5_0" index="0" disallow="tram rail_urban rail rail_electric rail_fast ship" speed="6.49" length="9.03" shape="235.27,172.08 237.63,171.32 239.17,169.98 239.90,168.08 239.81,165.60"/>
    </edge>
    <edge id=":270283541_6" function="internal">
        <lane id=":270283541_6_0" index="0" disallow="tram rail_urban rail rail_electric rail_fast ship" speed="27.78" length="14.52" shape="235.27,172.08 249.58,169.62"/>
        <lane id=":270283541_6_1" index="1" disallow="tram rail_urban rail rail_electric rail_fast ship" speed="27.78" length="14.52" shape="235.81,175.23 250.12,172.77"/>
        <lane id=":270283541_6_2" index="2" disallow="tram rail_urban rail rail_electric rail_fast ship" speed="27.78" length="14.52" shape="236.35,178.38 250.66,175.92"/>
        <lane id=":270283541_6_3" index="3" disallow="tram rail_urban rail rail_electric rail_fast ship" speed="27.78" length="14.52" shape="236.89,181.54 251.20,179.08"/>
        <lane id=":270283541_6_4" index="4" disallow="tram rail_urban rail rail_electric rail_fast ship" speed="27.78" length="14.52" shape="237.44,184.69 251.75,182.23"/>
    </edge>
    <edge id=":270284120_0" function="internal">
        <lane id=":270284120_0_0" index="0" disallow="tram rail_urban rail rail_electric rail_fast ship" speed="6.53" length="9.08" shape="736.63,80.23 737.41,82.59 738.75,84.13 740.67,84.87 743.17,84.80"/>
    </edge>
    <edge id=":270284120_1" function="internal">
        <lane id=":270284120_1_0" index="0" disallow="tram rail_urban rail rail_electric rail_fast ship" speed="8.02" length="14.23" shape="733.48,80.79 734.69,84.48 736.80,86.91 739.80,88.06 743.71,87.95"/>
    </edge>
    <edge id=":270284120_2" function="internal">
        <lane id=":270284120_2_0" index="0" disallow="tram rail_urban rail rail_electric rail_fast ship" speed="8.69" length="16.88" shape="733.48,80.79 734.93,85.86 737.21,89.27 740.32,91.02 744.25,91.10"/>
    </edge>
    <edge id=":270284120_3" function="internal">
        <lane id=":270284120_3_0" index="0" disallow="tram rail_urban rail rail_electric rail_fast ship" speed="13.89" length="24.26" shape="733.48,80.79 735.11,87.16 737.13,92.33 739.16,97.49 740.80,103.87"/>
    </edge>
    <edge id=":270284120_4" function="internal">
        <lane id=":270284120_4_0" index="0" disallow="tram rail_urban rail rail_electric rail_fast ship" speed="27.78" length="14.44" shape="728.94,87.24 743.17,84.80"/>
        <lane id=":270284120_4_1" index="1" disallow="tram rail_urban rail rail_electric rail_fast ship" speed="27.78" length="14.44" shape="729.48,90.40 743.71,87.95"/>
        <lane id=":270284120_4_2" index="2" disallow="tram rail_urban rail rail_electric rail_fast ship" speed="27.78" length="14.44" shape="730.02,93.55 744.25,91.10"/>
        <lane id=":270284120_4_3" index="3" disallow="tram rail_urban rail rail_electric rail_fast ship" speed="27.78" length="14.44" shape="730.56,96.70 744.79,94.26"/>
        <lane id=":270284120_4_4" index="4" disallow="tram rail_urban rail rail_electric rail_fast ship" speed="27.78" length="14.44" shape="731.11,99.86 745.34,97.41"/>
    </edge>
    <edge id=":270284120_9" function="internal">
        <lane id=":270284120_9_0" index="0" disallow="tram rail_urban rail rail_electric rail_fast ship" speed="6.54" length="9.09" shape="731.11,99.86 733.60,99.78 735.52,100.52 736.87,102.07 737.65,104.42"/>
    </edge>
    <edge id=":270284526_0" function="internal">
        <lane id=":270284526_0_0" index="0" disallow="tram rail_urban rail rail_electric rail_fast ship" speed="13.89" length="23.98" shape="852.36,84.70 848.35,61.04"/>
        <lane id=":270284526_0_1" index="1" disallow="tram rail_urban rail rail_electric rail_fast ship" speed="13.89" length="23.98" shape="855.52,84.14 851.50,60.52"/>
    </edge>
    <edge id=":270284526_2" function="internal">
        <lane id=":270284526_2_0" index="0" disallow="tram rail_urban rail rail_electric rail_fast ship" speed="8.09" length="14.56" shape="855.52,84.14 854.96,78.92 855.35,75.06 856.70,72.55 859.00,71.39"/>
    </edge>
    <edge id=":270284526_3" function="internal">
        <lane id=":270284526_3_0" index="0" disallow="tram rail_urban rail rail_electric rail_fast ship" speed="7.31" length="11.71" shape="855.52,84.14 855.20,80.30 855.76,77.42 857.21,75.50 859.54,74.55"/>
    </edge>
    <edge id=":270284526_4" function="internal">
        <lane id=":270284526_4_0" index="0" disallow="tram rail_urban rail rail_electric rail_fast ship" speed="6.49" length="9.01" shape="855.52,84.14 855.44,81.68 856.18,79.79 857.72,78.46 860.08,77.70"/>
    </edge>
    <edge id=":270284526_5" function="internal">
        <lane id=":270284526_5_0" index="0" disallow="tram rail_urban rail rail_electric rail_fast ship" speed="6.53" length="9.05" shape="843.75,67.52 846.10,66.76 847.65,65.43 848.40,63.52 848.35,61.04"/>
    </edge>
    <edge id=":270284526_6" function="internal">
        <lane id=":270284526_6_0" index="0" disallow="tram rail_urban rail rail_electric rail_fast ship" speed="27.78" length="14.37" shape="843.75,67.52 857.91,65.08"/>
        <lane id=":270284526_6_1" index="1" disallow="tram rail_urban rail rail_electric rail_fast ship" speed="27.78" length="14.37" shape="844.29,70.67 858.45,68.24"/>
        <lane id=":270284526_6_2" index="2" disallow="tram rail_urban rail rail_electric rail_fast ship" speed="27.78" length="14.37" shape="844.83,73.83 859.00,71.39"/>
        <lane id=":270284526_6_3" index="3" disallow="tram rail_urban rail rail_electric rail_fast ship" speed="27.78" length="14.37" shape="845.37,76.98 859.54,74.55"/>
        <lane id=":270284526_6_4" index="4" disallow="tram rail_urban rail rail_electric rail_fast ship" speed="27.78" length="14.37" shape="845.91,80.13 860.08,77.70"/>
    </edge>
    <edge id=":270285527_0" function="internal">
        <lane id=":270285527_0_0" index="0" disallow="tram rail_urban rail rail_electric rail_fast ship" speed="6.53" length="9.05" shape="885.32,272.72 884.54,270.37 883.20,268.82 881.29,268.08 878.82,268.15"/>
    </edge>
    <edge id=":270285527_1" function="internal">
        <lane id=":270285527_1_0" index="0" disallow="tram rail_urban rail rail_electric rail_fast ship" speed="13.89" length="14.38" shape="885.32,272.72 882.81,258.56"/>
        <lane id=":270285527_1_1" index="1" disallow="tram rail_urban rail rail_electric rail_fast ship" speed="13.89" length="14.38" shape="888.47,272.16 885.96,258.01"/>
    </edge>
    <edge id=":270285527_3" function="internal">
        <lane id=":270285527_3_0" index="0" disallow="tram rail_urban rail rail_electric rail_fast ship" speed="13.89" length="14.38" shape="892.99,265.73 878.82,268.15"/>
        <lane id=":270285527_3_1" index="1" disallow="tram rail_urban rail rail_electric rail_fast ship" speed="13.89" length="14.38" shape="892.45,262.57 878.28,264.99"/>
    </edge>
    <edge id=":270285527_5" function="internal">
        <lane id=":270285527_5_0" index="0" disallow="tram rail_urban rail rail_electric rail_fast ship" speed="6.52" length="4.28" shape="892.45,262.57 889.98,262.64 888.29,261.99"/>
    </edge>
    <edge id=":270285527_6" function="internal">
        <lane id=":270285527_6_0" index="0" disallow="tram rail_urban rail rail_electric rail_fast ship" speed="6.52" length="4.76" shape="888.29,261.99 888.07,261.90 886.73,260.36 885.96,258.01"/>
    </edge>
    <edge id=":270285528_0" function="internal">
        <lane id=":270285528_0_0" index="0" disallow="tram rail_urban rail rail_electric rail_fast ship" speed="6.49" length="9.03" shape="778.59,285.34 776.23,286.10 774.69,287.44 773.96,289.34 774.05,291.82"/>
    </edge>
    <edge id=":270285528_1" function="internal">
        <lane id=":270285528_1_0" index="0" disallow="tram rail_urban rail rail_electric rail_fast ship" speed="13.89" length="14.44" shape="778.59,285.34 764.36,287.78"/>
        <lane id=":270285528_1_1" index="1" disallow="tram rail_urban rail rail_electric rail_fast ship" speed="13.89" length="14.44" shape="778.05,282.19 763.81,284.63"/>
    </edge>
    <edge id=":270285528_3" function="internal">
        <lane id=":270285528_3_0" index="0" disallow="tram rail_urban rail rail_electric rail_fast ship" speed="13.89" length="14.44" shape="771.52,277.60 774.05,291.82"/>
        <lane id=":270285528_3_1" index="1" disallow="tram rail_urban rail rail_electric rail_fast ship" speed="13.89" length="14.44" shape="768.37,278.16 770.90,292.38"/>
    </edge>
    <edge id=":270285528_5" function="internal">