<?xml version="1.0" encoding="UTF-8"?>

<!-- generated on Fri Oct 23 23:04:31 2020 by Eclipse SUMO duarouter Version 1.6.0
<configuration xmlns:xsi="http://www.w3.org/2001/XMLSchema-instance" xsi:noNamespaceSchemaLocation="http://sumo.dlr.de/xsd/duarouterConfiguration.xsd">

    <input>
        <net-file value="cambio-red.net.xml"/>
        <route-files value="trips.trips.xml"/>
    </input>

    <output>
        <output-file value="cambio-red.rou.xml"/>
        <alternatives-output value="cambio-red.rou.alt.xml"/>
    </output>

    <time>
        <begin value="0.0"/>
        <end value="1.0"/>
    </time>

    <report>
        <no-warnings value="true"/>
        <ignore-errors value="true"/>
        <no-step-log value="true"/>
    </report>

</configuration>
-->

<routes xmlns:xsi="http://www.w3.org/2001/XMLSchema-instance" xsi:noNamespaceSchemaLocation="http://sumo.dlr.de/xsd/routes_file.xsd">
    <vehicle id="0" depart="0.00">
        <route edges="616311683#5 182938114 616311684#2 616311684#3 395300654#2 395300654#3 859818728 616665186#0 616665186#1 616665186#2 616665181#2 616665181#3 616665181#4"/>
    </vehicle>
</routes>
