<?xml version="1.0" encoding="UTF-8"?>

<!-- generated on Fri Oct 23 22:38:55 2020 by Eclipse SUMO netconvert Version 1.6.0
<configuration xmlns:xsi="http://www.w3.org/2001/XMLSchema-instance" xsi:noNamespaceSchemaLocation="http://sumo.dlr.de/xsd/netconvertConfiguration.xsd">

    <input>
        <osm-files value="mapa.osm"/>
    </input>

    <output>
        <output-file value="red.net.xml"/>
    </output>

    <projection>
        <proj.utm value="true"/>
    </projection>

    <report>
        <aggregate-warnings value="5"/>
    </report>

</configuration>
-->

<net version="1.6" junctionCornerDetail="5" limitTurnSpeed="5.50" xmlns:xsi="http://www.w3.org/2001/XMLSchema-instance" xsi:noNamespaceSchemaLocation="http://sumo.dlr.de/xsd/net_file.xsd">

    <location netOffset="-481695.26,-2150032.99" convBoundary="0.00,0.00,2433.15,871.58" origBoundary="-99.174390,19.444627,-99.151206,19.452492" projParameter="+proj=utm +zone=14 +ellps=WGS84 +datum=WGS84 +units=m +no_defs"/>

    <type id="highway.bridleway" priority="1" numLanes="1" speed="2.78" allow="pedestrian" oneway="1" width="2.00"/>
    <type id="highway.bus_guideway" priority="1" numLanes="1" speed="27.78" allow="bus" oneway="1"/>
    <type id="highway.cycleway" priority="1" numLanes="1" speed="8.33" allow="bicycle" oneway="0" width="1.00"/>
    <type id="highway.footway" priority="1" numLanes="1" speed="2.78" allow="pedestrian" oneway="1" width="2.00"/>
    <type id="highway.ford" priority="1" numLanes="1" speed="2.78" allow="army" oneway="0"/>
    <type id="highway.living_street" priority="2" numLanes="1" speed="2.78" disallow="tram rail_urban rail rail_electric rail_fast ship" oneway="0"/>
    <type id="highway.motorway" priority="14" numLanes="2" speed="39.44" allow="private emergency authority army vip passenger hov taxi bus coach delivery truck trailer motorcycle evehicle custom1 custom2" oneway="1"/>
    <type id="highway.motorway_link" priority="9" numLanes="1" speed="22.22" allow="private emergency authority army vip passenger hov taxi bus coach delivery truck trailer motorcycle evehicle custom1 custom2" oneway="1"/>
    <type id="highway.path" priority="1" numLanes="1" speed="2.78" allow="pedestrian bicycle" oneway="1" width="2.00"/>
    <type id="highway.pedestrian" priority="1" numLanes="1" speed="2.78" allow="pedestrian" oneway="1" width="2.00"/>
    <type id="highway.primary" priority="12" numLanes="2" speed="27.78" disallow="tram rail_urban rail rail_electric rail_fast ship" oneway="0"/>
    <type id="highway.primary_link" priority="7" numLanes="1" speed="22.22" disallow="tram rail_urban rail rail_electric rail_fast ship" oneway="0"/>
    <type id="highway.raceway" priority="15" numLanes="2" speed="83.33" allow="vip" oneway="0"/>
    <type id="highway.residential" priority="3" numLanes="1" speed="13.89" disallow="tram rail_urban rail rail_electric rail_fast ship" oneway="0"/>
    <type id="highway.secondary" priority="11" numLanes="1" speed="27.78" disallow="tram rail_urban rail rail_electric rail_fast ship" oneway="0"/>
    <type id="highway.secondary_link" priority="6" numLanes="1" speed="22.22" disallow="tram rail_urban rail rail_electric rail_fast ship" oneway="0"/>
    <type id="highway.service" priority="1" numLanes="1" speed="5.56" allow="pedestrian delivery bicycle" oneway="0"/>
    <type id="highway.stairs" priority="1" numLanes="1" speed="1.39" allow="pedestrian" oneway="1" width="2.00"/>
    <type id="highway.step" priority="1" numLanes="1" speed="1.39" allow="pedestrian" oneway="1" width="2.00"/>
    <type id="highway.steps" priority="1" numLanes="1" speed="1.39" allow="pedestrian" oneway="1" width="2.00"/>
    <type id="highway.tertiary" priority="10" numLanes="1" speed="22.22" disallow="tram rail_urban rail rail_electric rail_fast ship" oneway="0"/>
    <type id="highway.tertiary_link" priority="5" numLanes="1" speed="22.22" disallow="tram rail_urban rail rail_electric rail_fast ship" oneway="0"/>
    <type id="highway.track" priority="1" numLanes="1" speed="5.56" disallow="tram rail_urban rail rail_electric rail_fast ship" oneway="0"/>
    <type id="highway.trunk" priority="13" numLanes="2" speed="27.78" disallow="pedestrian bicycle tram rail_urban rail rail_electric rail_fast ship" oneway="0"/>
    <type id="highway.trunk_link" priority="8" numLanes="1" speed="22.22" disallow="pedestrian bicycle tram rail_urban rail rail_electric rail_fast ship" oneway="0"/>
    <type id="highway.unclassified" priority="4" numLanes="1" speed="13.89" disallow="tram rail_urban rail rail_electric rail_fast ship" oneway="0"/>
    <type id="highway.unsurfaced" priority="1" numLanes="1" speed="8.33" disallow="tram rail_urban rail rail_electric rail_fast ship" oneway="0"/>
    <type id="railway.highspeed" priority="21" numLanes="1" speed="69.44" allow="rail_fast" oneway="1"/>
    <type id="railway.light_rail" priority="19" numLanes="1" speed="27.78" allow="rail_urban" oneway="1"/>
    <type id="railway.preserved" priority="16" numLanes="1" speed="27.78" allow="rail" oneway="1"/>
    <type id="railway.rail" priority="20" numLanes="1" speed="44.44" allow="rail" oneway="1"/>
    <type id="railway.subway" priority="18" numLanes="1" speed="27.78" allow="rail_urban" oneway="1"/>
    <type id="railway.tram" priority="17" numLanes="1" speed="13.89" allow="tram" oneway="1"/>

    <edge id=":1405530616_0" function="internal">
        <lane id=":1405530616_0_0" index="0" allow="private emergency authority army vip passenger hov taxi bus coach delivery truck trailer motorcycle evehicle custom1 custom2" speed="22.22" length="0.35" shape="974.54,232.18 974.48,231.94"/>
        <lane id=":1405530616_0_1" index="1" allow="private emergency authority army vip passenger hov taxi bus coach delivery truck trailer motorcycle evehicle custom1 custom2" speed="22.22" length="0.35" shape="977.67,231.52 977.59,231.18"/>
        <lane id=":1405530616_0_2" index="2" allow="private emergency authority army vip passenger hov taxi bus coach delivery truck trailer motorcycle evehicle custom1 custom2" speed="22.22" length="0.35" shape="980.80,230.87 980.70,230.42"/>
    </edge>
    <edge id=":1409454755_0" function="internal">
        <lane id=":1409454755_0_0" index="0" allow="private emergency authority army vip passenger hov taxi bus coach delivery truck trailer motorcycle evehicle custom1 custom2" speed="22.22" length="15.99" shape="978.95,147.53 978.32,151.01 977.72,154.40 977.59,158.32 978.35,163.34"/>
    </edge>
    <edge id=":1409454755_1" function="internal">
        <lane id=":1409454755_1_0" index="0" allow="private emergency authority army vip passenger hov taxi bus coach delivery truck trailer motorcycle evehicle custom1 custom2" speed="22.22" length="17.64" shape="974.61,146.15 978.35,163.34"/>
        <lane id=":1409454755_1_1" index="1" allow="private emergency authority army vip passenger hov taxi bus coach delivery truck trailer motorcycle evehicle custom1 custom2" speed="22.22" length="17.64" shape="971.49,146.84 975.24,164.08"/>
        <lane id=":1409454755_1_2" index="2" allow="private emergency authority army vip passenger hov taxi bus coach delivery truck trailer motorcycle evehicle custom1 custom2" speed="22.22" length="17.64" shape="968.36,147.53 972.12,164.81"/>
    </edge>
    <edge id=":1865202483_0" function="internal">
        <lane id=":1865202483_0_0" index="0" disallow="tram rail_urban rail rail_electric rail_fast ship" speed="5.45" length="9.79" shape="326.67,402.75 327.44,405.78 328.65,407.01 330.31,406.43 332.40,404.04"/>
    </edge>
    <edge id=":1865202483_1" function="internal">
        <lane id=":1865202483_1_0" index="0" disallow="tram rail_urban rail rail_electric rail_fast ship" speed="11.31" length="15.93" shape="326.67,402.75 327.68,407.38 329.30,411.14 331.52,414.02 334.34,416.01"/>
    </edge>
    <edge id=":1865202483_2" function="internal">
        <lane id=":1865202483_2_0" index="0" disallow="tram rail_urban rail rail_electric rail_fast ship" speed="27.78" length="16.86" shape="322.76,417.96 332.40,404.04"/>
        <lane id=":1865202483_2_1" index="1" disallow="tram rail_urban rail rail_electric rail_fast ship" speed="27.78" length="16.86" shape="325.41,419.74 335.02,405.88"/>
        <lane id=":1865202483_2_2" index="2" disallow="tram rail_urban rail rail_electric rail_fast ship" speed="27.78" length="16.86" shape="328.07,421.53 337.64,407.72"/>
    </edge>
    <edge id=":1865202483_5" function="internal">
        <lane id=":1865202483_5_0" index="0" disallow="tram rail_urban rail rail_electric rail_fast ship" speed="5.71" length="6.03" shape="328.07,421.53 329.33,419.94 330.56,418.97 331.75,418.61 332.92,418.88"/>
    </edge>
    <edge id=":1865202484_0" function="internal">
        <lane id=":1865202484_0_0" index="0" disallow="tram rail_urban rail rail_electric rail_fast ship" speed="6.27" length="8.99" shape="345.59,415.34 344.52,417.61 344.47,419.61 345.47,421.34 347.49,422.78"/>
    </edge>
    <edge id=":1865202484_1" function="internal">
        <lane id=":1865202484_1_0" index="0" disallow="tram rail_urban rail rail_electric rail_fast ship" speed="27.78" length="13.52" shape="345.59,415.34 338.13,426.62"/>
        <lane id=":1865202484_1_1" index="1" disallow="tram rail_urban rail rail_electric rail_fast ship" speed="27.78" length="13.52" shape="342.92,413.57 335.46,424.86"/>
        <lane id=":1865202484_1_2" index="2" disallow="tram rail_urban rail rail_electric rail_fast ship" speed="27.78" length="13.52" shape="340.25,411.81 332.80,423.09"/>
    </edge>
    <edge id=":1865202484_4" function="internal">
        <lane id=":1865202484_4_0" index="0" disallow="tram rail_urban rail rail_electric rail_fast ship" speed="22.22" length="14.51" shape="334.52,416.10 347.49,422.78"/>
        <lane id=":1865202484_4_1" index="1" disallow="tram rail_urban rail rail_electric rail_fast ship" speed="22.22" length="14.51" shape="333.09,418.97 345.92,425.57"/>
    </edge>
    <edge id=":1865202484_6" function="internal">
        <lane id=":1865202484_6_0" index="0" disallow="tram rail_urban rail rail_electric rail_fast ship" speed="5.74" length="7.43" shape="333.09,418.97 335.01,420.21 336.05,421.61 336.20,423.16 335.46,424.86"/>
    </edge>
    <edge id=":1865202484_7" function="internal">
        <lane id=":1865202484_7_0" index="0" disallow="tram rail_urban rail rail_electric rail_fast ship" speed="4.74" length="4.70" shape="333.09,418.97 333.76,419.56 333.93,420.45 333.61,421.63 332.80,423.09"/>
    </edge>
    <edge id=":1865202485_0" function="internal">
        <lane id=":1865202485_0_0" index="0" disallow="tram rail_urban rail rail_electric rail_fast ship" speed="6.98" length="11.36" shape="325.78,429.73 323.79,428.07 323.05,425.88 323.56,423.16 325.30,419.91"/>
    </edge>
    <edge id=":1865202485_1" function="internal">
        <lane id=":1865202485_1_0" index="0" disallow="tram rail_urban rail rail_electric rail_fast ship" speed="5.23" length="5.89" shape="327.28,426.91 326.54,426.16 326.41,425.05 326.88,423.56 327.96,421.69"/>
    </edge>
    <edge id=":1865202485_2" function="internal">
        <lane id=":1865202485_2_0" index="0" disallow="tram rail_urban rail rail_electric rail_fast ship" speed="27.78" length="13.75" shape="315.10,429.74 322.65,418.12"/>
        <lane id=":1865202485_2_1" index="1" disallow="tram rail_urban rail rail_electric rail_fast ship" speed="27.78" length="13.75" shape="317.81,431.44 325.30,419.91"/>
        <lane id=":1865202485_2_2" index="2" disallow="tram rail_urban rail rail_electric rail_fast ship" speed="27.78" length="13.75" shape="320.52,433.14 327.96,421.69"/>
    </edge>
    <edge id=":1865202486_0" function="internal">
        <lane id=":1865202486_0_0" index="0" disallow="tram rail_urban rail rail_electric rail_fast ship" speed="6.73" length="9.27" shape="337.90,438.02 335.40,437.06 333.23,437.01 331.37,437.89 329.83,439.68"/>
    </edge>
    <edge id=":1865202486_1" function="internal">
        <lane id=":1865202486_1_0" index="0" disallow="tram rail_urban rail rail_electric rail_fast ship" speed="8.19" length="14.21" shape="339.41,435.20 335.65,433.78 332.35,433.77 329.50,435.18 327.10,438.00"/>
    </edge>
    <edge id=":1865202486_2" function="internal">
        <lane id=":1865202486_2_0" index="0" disallow="tram rail_urban rail rail_electric rail_fast ship" speed="22.22" length="15.43" shape="340.92,432.38 336.70,430.97 333.44,431.10 330.18,431.23 325.95,429.82"/>
    </edge>
    <edge id=":1865202486_3" function="internal">
        <lane id=":1865202486_3_0" index="0" disallow="tram rail_urban rail rail_electric rail_fast ship" speed="27.78" length="15.38" shape="338.02,426.79 329.83,439.68"/>
        <lane id=":1865202486_3_1" index="1" disallow="tram rail_urban rail rail_electric rail_fast ship" speed="27.78" length="15.38" shape="335.35,425.02 327.10,438.00"/>
        <lane id=":1865202486_3_2" index="2" disallow="tram rail_urban rail rail_electric rail_fast ship" speed="27.78" length="15.38" shape="332.68,423.26 324.37,436.33"/>
    </edge>
    <edge id=":1865202486_6" function="internal">
        <lane id=":1865202486_6_0" index="0" disallow="tram rail_urban rail rail_electric rail_fast ship" speed="5.97" length="6.91" shape="332.68,423.26 331.16,425.30 329.78,426.61 328.55,427.17 327.46,427.00"/>
    </edge>
    <edge id=":1865202487_0" function="internal">
        <lane id=":1865202487_0_0" index="0" disallow="tram rail_urban rail rail_electric rail_fast ship" speed="27.78" length="12.61" shape="310.15,471.72 303.13,482.33"/>
        <lane id=":1865202487_0_1" index="1" disallow="tram rail_urban rail rail_electric rail_fast ship" speed="27.78" length="12.61" shape="307.42,470.04 300.47,480.56"/>
        <lane id=":1865202487_0_2" index="2" disallow="tram rail_urban rail rail_electric rail_fast ship" speed="27.78" length="12.61" shape="304.69,468.37 297.80,478.78"/>
    </edge>
    <edge id=":1865202487_3" function="internal">
        <lane id=":1865202487_3_0" index="0" disallow="tram rail_urban rail rail_electric rail_fast ship" speed="9.35" length="7.90" shape="304.69,468.37 303.67,470.52 303.05,472.22 302.11,473.47 300.14,474.32"/>
    </edge>
    <edge id=":1865202487_4" function="internal">
        <lane id=":1865202487_4_0" index="0" disallow="tram rail_urban rail rail_electric rail_fast ship" speed="6.40" length="14.19" shape="299.40,471.21 302.72,471.01 304.01,472.51 303.26,475.69 300.47,480.56"/>
    </edge>
    <edge id=":1865202487_5" function="internal">
        <lane id=":1865202487_5_0" index="0" disallow="tram rail_urban rail rail_electric rail_fast ship" speed="5.44" length="9.76" shape="299.40,471.21 300.84,471.31 301.05,472.61 300.04,475.10 297.80,478.78"/>
    </edge>
    <edge id=":1865202487_6" function="internal">
        <lane id=":1865202487_6_0" index="0" disallow="tram rail_urban rail rail_electric rail_fast ship" speed="3.65" length="4.67" shape="299.40,471.21 300.75,471.71 301.33,472.39 301.12,473.26 300.14,474.32"/>
    </edge>
    <edge id=":1865202489_0" function="internal">
        <lane id=":1865202489_0_0" index="0" disallow="tram rail_urban rail rail_electric rail_fast ship" speed="22.22" length="23.81" shape="299.95,474.37 276.78,479.85"/>
    </edge>
    <edge id=":1865202489_1" function="internal">
        <lane id=":1865202489_1_0" index="0" disallow="tram rail_urban rail rail_electric rail_fast ship" speed="6.05" length="2.65" shape="299.95,474.37 297.65,474.36 297.50,474.04"/>
    </edge>
    <edge id=":1865202489_2" function="internal">
        <lane id=":1865202489_2_0" index="0" disallow="tram rail_urban rail rail_electric rail_fast ship" speed="3.65" length="1.83" shape="299.95,474.37 298.59,473.87 298.34,473.57"/>
    </edge>
    <edge id=":1865202489_11" function="internal">
        <lane id=":1865202489_11_0" index="0" disallow="tram rail_urban rail rail_electric rail_fast ship" speed="6.05" length="9.67" shape="297.50,474.04 296.95,472.84 297.86,469.81 300.38,465.27"/>
    </edge>
    <edge id=":1865202489_12" function="internal">
        <lane id=":1865202489_12_0" index="0" disallow="tram rail_urban rail rail_electric rail_fast ship" speed="3.65" length="2.84" shape="298.34,473.57 298.02,473.19 298.22,472.31 299.20,471.26"/>
    </edge>
    <edge id=":1865202489_3" function="internal">
        <lane id=":1865202489_3_0" index="0" disallow="tram rail_urban rail rail_electric rail_fast ship" speed="16.30" length="24.62" shape="276.05,476.73 280.16,475.36 284.93,472.70 289.99,468.33 294.96,461.88"/>
    </edge>
    <edge id=":1865202489_4" function="internal">
        <lane id=":1865202489_4_0" index="0" disallow="tram rail_urban rail rail_electric rail_fast ship" speed="22.22" length="23.79" shape="276.05,476.73 299.20,471.26"/>
    </edge>
    <edge id=":1865202489_5" function="internal">
        <lane id=":1865202489_5_0" index="0" disallow="tram rail_urban rail rail_electric rail_fast ship" speed="3.65" length="4.67" shape="276.05,476.73 277.40,477.24 277.97,477.93 277.76,478.80 276.78,479.85"/>
    </edge>
    <edge id=":1865202489_6" function="internal">
        <lane id=":1865202489_6_0" index="0" disallow="tram rail_urban rail rail_electric rail_fast ship" speed="5.46" length="9.86" shape="280.13,484.70 281.61,481.89 281.55,480.14 279.93,479.46 276.78,479.85"/>
    </edge>
    <edge id=":1865202489_7" function="internal">
        <lane id=":1865202489_7_0" index="0" disallow="tram rail_urban rail rail_electric rail_fast ship" speed="27.78" length="27.32" shape="280.13,484.70 294.96,461.88"/>
        <lane id=":1865202489_7_1" index="1" disallow="tram rail_urban rail rail_electric rail_fast ship" speed="27.78" length="27.32" shape="282.79,486.49 297.67,463.58"/>
        <lane id=":1865202489_7_2" index="2" disallow="tram rail_urban rail rail_electric rail_fast ship" speed="27.78" length="27.32" shape="285.45,488.27 300.38,465.27"/>
    </edge>
    <edge id=":1865202489_10" function="internal">
        <lane id=":1865202489_10_0" index="0" disallow="tram rail_urban rail rail_electric rail_fast ship" speed="16.06" length="12.35" shape="285.45,488.27 289.49,481.95 292.10,477.87"/>
    </edge>
    <edge id=":1865202489_13" function="internal">
        <lane id=":1865202489_13_0" index="0" disallow="tram rail_urban rail rail_electric rail_fast ship" speed="16.06" length="9.89" shape="292.10,477.87 292.79,476.80 295.86,473.13 299.20,471.26"/>
    </edge>
    <edge id=":1865202491_0" function="internal">
        <lane id=":1865202491_0_0" index="0" disallow="tram rail_urban rail rail_electric rail_fast ship" speed="22.22" length="9.40" shape="463.30,482.43 471.66,486.74"/>
        <lane id=":1865202491_0_1" index="1" disallow="tram rail_urban rail rail_electric rail_fast ship" speed="22.22" length="9.40" shape="461.84,485.27 470.20,489.58"/>
    </edge>
    <edge id=":1865202491_2" function="internal">
        <lane id=":1865202491_2_0" index="0" disallow="tram rail_urban rail rail_electric rail_fast ship" speed="6.05" length="7.83" shape="461.84,485.27 464.21,486.72 465.68,488.16 466.25,489.59 465.92,491.01"/>
    </edge>
    <edge id=":1865202491_3" function="internal">
        <lane id=":1865202491_3_0" index="0" disallow="tram rail_urban rail rail_electric rail_fast ship" speed="6.15" length="7.80" shape="463.12,489.47 464.13,488.44 465.64,488.12 467.67,488.50 470.20,489.58"/>
    </edge>
    <edge id=":1865202491_4" function="internal">
        <lane id=":1865202491_4_0" index="0" disallow="tram rail_urban rail rail_electric rail_fast ship" speed="3.65" length="4.67" shape="463.12,489.47 464.40,488.80 465.29,488.83 465.80,489.57 465.92,491.01"/>
    </edge>
    <edge id=":1865202492_0" function="internal">
        <lane id=":1865202492_0_0" index="0" disallow="tram rail_urban rail rail_electric rail_fast ship" speed="22.22" length="9.40" shape="462.95,502.98 454.66,498.55"/>
        <lane id=":1865202492_0_1" index="1" disallow="tram rail_urban rail rail_electric rail_fast ship" speed="22.22" length="9.40" shape="464.46,500.16 456.16,495.73"/>
    </edge>
    <edge id=":1865202492_2" function="internal">
        <lane id=":1865202492_2_0" index="0" disallow="tram rail_urban rail rail_electric rail_fast ship" speed="6.07" length="7.79" shape="464.46,500.16 462.11,498.68 460.65,497.23 460.08,495.81 460.40,494.41"/>
    </edge>
    <edge id=":1865202492_3" function="internal">
        <lane id=":1865202492_3_0" index="0" disallow="tram rail_urban rail rail_electric rail_fast ship" speed="6.11" length="7.77" shape="463.21,495.95 462.20,496.97 460.69,497.27 458.68,496.85 456.16,495.73"/>
    </edge>
    <edge id=":1865202492_4" function="internal">
        <lane id=":1865202492_4_0" index="0" disallow="tram rail_urban rail rail_electric rail_fast ship" speed="3.65" length="4.67" shape="463.21,495.95 461.93,496.62 461.03,496.59 460.52,495.85 460.40,494.41"/>
    </edge>
    <edge id=":1865202505_0" function="internal">
        <lane id=":1865202505_0_0" index="0" disallow="tram rail_urban rail rail_electric rail_fast ship" speed="27.78" length="10.76" shape="127.18,712.48 133.20,703.57"/>
        <lane id=":1865202505_0_1" index="1" disallow="tram rail_urban rail rail_electric rail_fast ship" speed="27.78" length="10.76" shape="129.83,714.28 135.85,705.36"/>
        <lane id=":1865202505_0_2" index="2" disallow="tram rail_urban rail rail_electric rail_fast ship" speed="27.78" length="10.76" shape="132.48,716.08 138.51,707.14"/>
    </edge>
    <edge id=":1865202505_3" function="internal">
        <lane id=":1865202505_3_0" index="0" disallow="tram rail_urban rail rail_electric rail_fast ship" speed="5.82" length="6.73" shape="132.48,716.08 133.93,714.24 135.31,713.14 136.61,712.76 137.83,713.11"/>
    </edge>
    <edge id=":1865202506_0" function="internal">
        <lane id=":1865202506_0_0" index="0" disallow="tram rail_urban rail rail_electric rail_fast ship" speed="6.49" length="8.96" shape="149.11,713.34 148.08,715.52 148.02,717.53 148.92,719.36 150.79,721.02"/>
    </edge>
    <edge id=":1865202506_1" function="internal">
        <lane id=":1865202506_1_0" index="0" disallow="tram rail_urban rail rail_electric rail_fast ship" speed="27.78" length="11.44" shape="149.11,713.34 142.98,722.87"/>
        <lane id=":1865202506_1_1" index="1" disallow="tram rail_urban rail rail_electric rail_fast ship" speed="27.78" length="11.44" shape="146.45,711.57 140.26,721.19"/>
        <lane id=":1865202506_1_2" index="2" disallow="tram rail_urban rail rail_electric rail_fast ship" speed="27.78" length="11.44" shape="143.78,709.79 137.54,719.50"/>
    </edge>
    <edge id=":1865202506_4" function="internal">
        <lane id=":1865202506_4_0" index="0" disallow="tram rail_urban rail rail_electric rail_fast ship" speed="13.89" length="14.98" shape="138.00,713.22 150.79,721.02"/>
    </edge>
    <edge id=":1865202506_5" function="internal">
        <lane id=":1865202506_5_0" index="0" disallow="tram rail_urban rail rail_electric rail_fast ship" speed="6.62" length="9.47" shape="138.00,713.22 140.11,714.90 141.19,716.79 141.24,718.89 140.26,721.19"/>
    </edge>
    <edge id=":1865202506_6" function="internal">
        <lane id=":1865202506_6_0" index="0" disallow="tram rail_urban rail rail_electric rail_fast ship" speed="5.79" length="7.00" shape="138.00,713.22 138.91,714.18 139.14,715.54 138.68,717.32 137.54,719.50"/>
    </edge>
    <edge id=":1932895447_0" function="internal">
        <lane id=":1932895447_0_0" index="0" disallow="tram rail_urban rail rail_electric rail_fast ship" speed="9.05" length="8.08" shape="361.11,355.85 363.74,355.34 365.83,354.66 367.38,353.81 368.40,352.78"/>
    </edge>
    <edge id=":1932895447_1" function="internal">
        <lane id=":1932895447_1_0" index="0" disallow="tram rail_urban rail rail_electric rail_fast ship" speed="27.78" length="9.16" shape="363.21,360.25 368.40,352.78"/>
        <lane id=":1932895447_1_1" index="1" disallow="tram rail_urban rail rail_electric rail_fast ship" speed="27.78" length="9.16" shape="365.83,362.09 371.05,354.57"/>
        <lane id=":1932895447_1_2" index="2" disallow="tram rail_urban rail rail_electric rail_fast ship" speed="27.78" length="9.16" shape="368.45,363.93 373.71,356.35"/>
    </edge>
    <edge id=":1932895460_0" function="internal">
        <lane id=":1932895460_0_0" index="0" disallow="tram rail_urban rail rail_electric rail_fast ship" speed="13.89" length="11.19" shape="203.92,384.45 202.31,373.37"/>
        <lane id=":1932895460_0_1" index="1" disallow="tram rail_urban rail rail_electric rail_fast ship" speed="13.89" length="11.19" shape="207.08,383.99 205.48,372.91"/>
    </edge>
    <edge id=":1932895460_2" function="internal">
        <lane id=":1932895460_2_0" index="0" disallow="tram rail_urban rail rail_electric rail_fast ship" speed="6.51" length="9.02" shape="207.08,383.99 207.08,381.51 207.86,379.63 209.44,378.34 211.81,377.64"/>
    </edge>
    <edge id=":1932895460_3" function="internal">
        <lane id=":1932895460_3_0" index="0" disallow="tram rail_urban rail rail_electric rail_fast ship" speed="6.51" length="9.03" shape="197.58,379.72 199.95,379.02 201.53,377.73 202.31,375.84 202.31,373.37"/>
    </edge>
    <edge id=":1932895460_4" function="internal">
        <lane id=":1932895460_4_0" index="0" disallow="tram rail_urban rail rail_electric rail_fast ship" speed="13.89" length="14.39" shape="197.58,379.72 211.81,377.64"/>
    </edge>
    <edge id=":1932933919_0" function="internal">
        <lane id=":1932933919_0_0" index="0" disallow="tram rail_urban rail rail_electric rail_fast ship" speed="5.83" length="7.04" shape="473.01,184.99 475.14,186.26 476.90,186.83 478.29,186.69 479.31,185.85"/>
    </edge>
    <edge id=":1932933919_1" function="internal">
        <lane id=":1932933919_1_0" index="0" disallow="tram rail_urban rail rail_electric rail_fast ship" speed="3.65" length="4.68" shape="473.01,184.99 473.49,186.35 473.32,187.23 472.52,187.63 471.08,187.54"/>
    </edge>
    <edge id=":1932933919_2" function="internal">
        <lane id=":1932933919_2_0" index="0" disallow="tram rail_urban rail rail_electric rail_fast ship" speed="6.06" length="7.56" shape="473.95,193.70 474.48,192.25 474.18,190.75 473.04,189.18 471.08,187.54"/>
    </edge>
    <edge id=":1932933919_3" function="internal">
        <lane id=":1932933919_3_0" index="0" disallow="tram rail_urban rail rail_electric rail_fast ship" speed="27.78" length="9.43" shape="473.95,193.70 479.31,185.85"/>
        <lane id=":1932933919_3_1" index="1" disallow="tram rail_urban rail rail_electric rail_fast ship" speed="27.78" length="9.43" shape="476.62,195.47 481.93,187.68"/>
        <lane id=":1932933919_3_2" index="2" disallow="tram rail_urban rail rail_electric rail_fast ship" speed="27.78" length="9.43" shape="479.28,197.25 484.56,189.51"/>
    </edge>
    <edge id=":1932933921_0" function="internal">
        <lane id=":1932933921_0_0" index="0" disallow="tram rail_urban rail rail_electric rail_fast ship" speed="22.22" length="9.45" shape="776.96,274.46 776.10,265.05"/>
        <lane id=":1932933921_0_1" index="1" disallow="tram rail_urban rail rail_electric rail_fast ship" speed="22.22" length="9.45" shape="780.15,274.17 779.29,264.76"/>
    </edge>
    <edge id=":1932933921_2" function="internal">
        <lane id=":1932933921_2_0" index="0" disallow="tram rail_urban rail rail_electric rail_fast ship" speed="6.44" length="7.99" shape="780.15,274.17 780.11,271.45 780.54,269.41 781.44,268.04 782.82,267.35"/>
    </edge>
    <edge id=":1932933921_3" function="internal">
        <lane id=":1932933921_3_0" index="0" disallow="tram rail_urban rail rail_electric rail_fast ship" speed="5.96" length="8.12" shape="783.51,270.48 781.88,270.42 780.64,269.44 779.77,267.56 779.29,264.76"/>
    </edge>
    <edge id=":1932933921_4" function="internal">
        <lane id=":1932933921_4_0" index="0" disallow="tram rail_urban rail rail_electric rail_fast ship" speed="3.65" length="4.67" shape="783.51,270.48 782.16,269.95 781.60,269.26 781.82,268.39 782.82,267.35"/>
    </edge>
    <edge id=":2286226704_0" function="internal">
        <lane id=":2286226704_0_0" index="0" disallow="tram rail_urban rail rail_electric rail_fast ship" speed="22.22" length="11.85" shape="803.50,631.23 803.09,619.36"/>
        <lane id=":2286226704_0_1" index="1" disallow="tram rail_urban rail rail_electric rail_fast ship" speed="22.22" length="11.85" shape="806.69,631.10 806.29,619.29"/>
    </edge>
    <edge id=":2286226704_2" function="internal">
        <lane id=":2286226704_2_0" index="0" disallow="tram rail_urban rail rail_electric rail_fast ship" speed="7.55" length="8.93" shape="797.43,625.59 799.94,624.29 801.72,622.82 802.77,621.18 803.09,619.36"/>
    </edge>
    <edge id=":2286226704_3" function="internal">
        <lane id=":2286226704_3_0" index="0" disallow="tram rail_urban rail rail_electric rail_fast ship" speed="8.92" length="12.76" shape="798.67,628.54 802.05,626.74 804.45,624.60 805.86,622.11 806.29,619.29"/>
    </edge>
    <edge id=":2286226706_0" function="internal">
        <lane id=":2286226706_0_0" index="0" disallow="tram rail_urban rail rail_electric rail_fast ship" speed="22.22" length="28.20" shape="766.07,633.70 773.19,633.47 779.84,631.92 786.42,629.65 793.28,627.22"/>
    </edge>
    <edge id=":2286226706_1" function="internal">
        <lane id=":2286226706_1_0" index="0" disallow="tram rail_urban rail rail_electric rail_fast ship" speed="22.22" length="28.35" shape="766.07,633.70 773.30,633.96 780.21,633.49 787.04,632.28 794.02,630.34"/>
    </edge>
    <edge id=":2286226706_2" function="internal">
        <lane id=":2286226706_2_0" index="0" disallow="tram rail_urban rail rail_electric rail_fast ship" speed="22.22" length="28.60" shape="766.07,633.70 773.37,633.69 780.42,633.11 787.38,632.96 794.41,634.26"/>