<configuration>
    <input>
        <net-file value="9g3qxs.net.xml"/>
        <route-files value="9g3qxs.rou.xml"/>
<!--        <additional-files value="9g3qxs.poly.xml"/>-->
    </input>
    <time>
        <begin value="0"/>
        <end value="2000"/>
        <step-length value="0.1"/>
    </time>
</configuration>
