<?xml version="1.0" encoding="UTF-8"?>
<!-- generated on 2020-12-10 20:28:47.395255 by $Id$ v1_8_0+0044-4820708f3d
  options: -n 9g3qxs-2.net.xml -r 9g3qxs-2.rou.xml -e 300 -p 0.7 -s 1 <doubleminus>speed-exponent=-0.5
-->
<routes xmlns:xsi="http://www.w3.org/2001/XMLSchema-instance" xsi:noNamespaceSchemaLocation="http://sumo.dlr.de/xsd/routes_file.xsd">
    <trip id="0" depart="0.00" from="24872941#1" to="616728344#5"/>
    <trip id="1" depart="0.70" from="616665186#5" to="24873135#2"/>
    <trip id="2" depart="1.40" from="324171519#0" to="325152995#0"/>
    <trip id="3" depart="2.10" from="616665181#3" to="616728344#0"/>
    <trip id="4" depart="2.80" from="24866873#1" to="24866873#0"/>
    <trip id="5" depart="3.50" from="616728344#2" to="324171519#1"/>
    <trip id="6" depart="4.20" from="616665186#5" to="220713052#1"/>
    <trip id="7" depart="4.90" from="24873225#1" to="616665186#4"/>
    <trip id="8" depart="5.60" from="24873029#0" to="67830147#1"/>
    <trip id="9" depart="6.30" from="616728353#1" to="24866873#0"/>
    <trip id="10" depart="7.00" from="220713052#0" to="395300661#1"/>
    <trip id="11" depart="7.70" from="67830147#0" to="24873200#1"/>
    <trip id="12" depart="8.40" from="24872979#2" to="324171519#0"/>
    <trip id="13" depart="9.10" from="220713052#0" to="24873078"/>
    <trip id="14" depart="9.80" from="24873225#0" to="345400674#2"/>
    <trip id="15" depart="10.50" from="24873029#1" to="24873135#0"/>
    <trip id="16" depart="11.20" from="24872979#2" to="325152995#1"/>
    <trip id="17" depart="11.90" from="24873135#0" to="220713052#2"/>
    <trip id="18" depart="12.60" from="616728344#2" to="616416990#1"/>
    <trip id="19" depart="13.30" from="616665181#2" to="24873029#4"/>
    <trip id="20" depart="14.00" from="67830147#4" to="616728351"/>
    <trip id="21" depart="14.70" from="24872818#1" to="24873135#8"/>
    <trip id="22" depart="15.40" from="616665186#13" to="616665186#3"/>
    <trip id="23" depart="16.10" from="616728353#4" to="324171519#0"/>
    <trip id="24" depart="16.80" from="616728344#2" to="616665186#11"/>
    <trip id="25" depart="17.50" from="24873135#1" to="616416990#3"/>
    <trip id="26" depart="18.20" from="616728353#0" to="616728344#5"/>
    <trip id="27" depart="18.90" from="325152995#0" to="616416990#3"/>
    <trip id="28" depart="19.60" from="220713052#0" to="24873135#1"/>
    <trip id="29" depart="20.30" from="616665186#9" to="24873352#1"/>
    <trip id="30" depart="21.00" from="24872941#4" to="395300661#1"/>
    <trip id="31" depart="21.70" from="616665186#11" to="616665186#12"/>
    <trip id="32" depart="22.40" from="24873135#7" to="324171519#1"/>
    <trip id="33" depart="23.10" from="325152995#0" to="616728344#0"/>
    <trip id="34" depart="23.80" from="345400674#0" to="24873225#1"/>
    <trip id="35" depart="24.50" from="324171519#0" to="24866873#0"/>
    <trip id="36" depart="25.20" from="220713052#1" to="616665186#2"/>
    <trip id="37" depart="25.90" from="67830147#3" to="616665181#1"/>
    <trip id="38" depart="26.60" from="24873135#9" to="24873029#2"/>
    <trip id="39" depart="27.30" from="325152995#0" to="67830147#4"/>
    <trip id="40" depart="28.00" from="616665186#5" to="345400676"/>
    <trip id="41" depart="28.70" from="616728344#4" to="24873135#0"/>
    <trip id="42" depart="29.40" from="345400674#0" to="67830147#2"/>
    <trip id="43" depart="30.10" from="616416990#0" to="325152995#1"/>
    <trip id="44" depart="30.80" from="24873029#4" to="395300661#1"/>
    <trip id="45" depart="31.50" from="67830147#1" to="220713052#1"/>
    <trip id="46" depart="32.20" from="616665186#7" to="616728344#3"/>
    <trip id="47" depart="32.90" from="616728353#0" to="616665186#6"/>
    <trip id="48" depart="33.60" from="616728344#0" to="345400675#1"/>
    <trip id="49" depart="34.30" from="395300661#1" to="324171519#0"/>
    <trip id="50" depart="35.00" from="220713052#2" to="616728353#1"/>
    <trip id="51" depart="35.70" from="616416990#0" to="24873029#5"/>
    <trip id="52" depart="36.40" from="325152995#0" to="345400674#1"/>
    <trip id="53" depart="37.10" from="24873135#6" to="24873135#9"/>
    <trip id="54" depart="37.80" from="345400675#0" to="616665181#3"/>
    <trip id="55" depart="38.50" from="616416990#3" to="325152995#1"/>
    <trip id="56" depart="39.20" from="220713052#0" to="24873135#0"/>
    <trip id="57" depart="39.90" from="24872941#4" to="616416990#3"/>
    <trip id="58" depart="40.60" from="616728344#4" to="616728344#1"/>
    <trip id="59" depart="41.30" from="616665186#9" to="616728344#3"/>
    <trip id="60" depart="42.00" from="24873029#2" to="616728344#4"/>
    <trip id="61" depart="42.70" from="616665181#4" to="24872941#3"/>
    <trip id="62" depart="43.40" from="-744252705" to="220713052#2"/>
    <trip id="63" depart="44.10" from="616665186#4" to="24873135#1"/>
    <trip id="64" depart="44.80" from="24872818#0" to="616665181#3"/>
    <trip id="65" depart="45.50" from="24873135#5" to="24872941#2"/>
    <trip id="66" depart="46.20" from="24872941#3" to="345400676"/>
    <trip id="67" depart="46.90" from="24872941#3" to="24873135#3"/>
    <trip id="68" depart="47.60" from="616665186#12" to="325152995#0"/>
    <trip id="69" depart="48.30" from="24873135#3" to="345400674#0"/>
    <trip id="70" depart="49.00" from="-744252705" to="24873225#1"/>
    <trip id="71" depart="49.70" from="24873200#0" to="24873029#4"/>
    <trip id="72" depart="50.40" from="24872818#0" to="616728353#3"/>
    <trip id="73" depart="51.10" from="345400674#0" to="24873029#5"/>
    <trip id="74" depart="51.80" from="616416990#3" to="616728344#3"/>
    <trip id="75" depart="52.50" from="-744252705" to="220713052#2"/>
    <trip id="76" depart="53.20" from="24872941#2" to="616665186#3"/>
    <trip id="77" depart="53.90" from="24872941#3" to="616665186#2"/>
    <trip id="78" depart="54.60" from="616665186#0" to="395300661#1"/>
    <trip id="79" depart="55.30" from="24873029#0" to="67830147#4"/>
    <trip id="80" depart="56.00" from="616665186#9" to="345400675#0"/>
    <trip id="81" depart="56.70" from="24873029#0" to="616665186#1"/>
    <trip id="82" depart="57.40" from="24873135#9" to="616416990#2"/>
    <trip id="83" depart="58.10" from="24873135#3" to="616665181#3"/>
    <trip id="84" depart="58.80" from="220713052#2" to="24873135#5"/>
    <trip id="85" depart="59.50" from="67830147#2" to="616728353#1"/>
    <trip id="86" depart="60.20" from="24873135#2" to="616728351"/>
    <trip id="87" depart="60.90" from="24873135#2" to="67830147#1"/>
    <trip id="88" depart="61.60" from="616665186#2" to="24873352#1"/>
    <trip id="89" depart="62.30" from="24873029#2" to="220713052#1"/>
    <trip id="90" depart="63.00" from="616728353#0" to="24866873#0"/>
    <trip id="91" depart="63.70" from="616728344#1" to="67830147#3"/>
    <trip id="92" depart="64.40" from="616416990#0" to="24873029#3"/>
    <trip id="93" depart="65.10" from="616728344#5" to="67830147#4"/>
    <trip id="94" depart="65.80" from="616665186#11" to="345400675#0"/>
    <trip id="95" depart="66.50" from="24873135#8" to="24873135#9"/>
    <trip id="96" depart="67.20" from="24872979#1" to="616665186#12"/>
    <trip id="97" depart="67.90" from="24873225#0" to="24873029#4"/>
    <trip id="98" depart="68.60" from="24872818#0" to="616665186#11"/>
    <trip id="99" depart="69.30" from="24873135#1" to="345400674#2"/>
    <trip id="100" depart="70.00" from="24873135#3" to="616728353#1"/>
    <trip id="101" depart="70.70" from="616728353#1" to="220713052#2"/>
    <trip id="102" depart="71.40" from="24872979#1" to="24873135#7"/>
    <trip id="103" depart="72.10" from="67830147#3" to="616728344#0"/>
    <trip id="104" depart="72.80" from="24873135#4" to="24873078"/>
    <trip id="105" depart="73.50" from="616665181#4" to="616728344#4"/>
    <trip id="106" depart="74.20" from="616728353#4" to="24873135#9"/>
    <trip id="107" depart="74.90" from="616728353#0" to="616665186#13"/>
    <trip id="108" depart="75.60" from="24873352#1" to="67830147#4"/>
    <trip id="109" depart="76.30" from="24873029#1" to="616665186#4"/>
    <trip id="110" depart="77.00" from="24866873#0" to="24873029#2"/>
    <trip id="111" depart="77.70" from="616728353#2" to="24873078"/>
    <trip id="112" depart="78.40" from="616665186#4" to="616665181#1"/>
    <trip id="113" depart="79.10" from="616728344#2" to="24873200#0"/>
    <trip id="114" depart="79.80" from="24873135#4" to="24873135#5"/>
    <trip id="115" depart="80.50" from="616728344#5" to="616665181#1"/>
    <trip id="116" depart="81.20" from="67830147#1" to="616728353#2"/>
    <trip id="117" depart="81.90" from="24872941#1" to="395300661#1"/>
    <trip id="118" depart="82.60" from="24872818#0" to="24866873#0"/>
    <trip id="119" depart="83.30" from="24866873#0" to="616728351"/>
    <trip id="120" depart="84.00" from="616665186#8" to="616728344#3"/>
    <trip id="121" depart="84.70" from="24873135#4" to="616665181#2"/>
    <trip id="122" depart="85.40" from="616665186#7" to="24873200#1"/>
    <trip id="123" depart="86.10" from="616416990#0" to="24873078"/>
    <trip id="124" depart="86.80" from="24866873#0" to="24873135#3"/>
    <trip id="125" depart="87.50" from="616728353#1" to="616416990#1"/>
    <trip id="126" depart="88.20" from="616728353#3" to="325152995#1"/>
    <trip id="127" depart="88.90" from="24873029#4" to="616728344#0"/>
    <trip id="128" depart="89.60" from="616728344#1" to="220713052#1"/>
    <trip id="129" depart="90.30" from="616665181#4" to="24872941#3"/>
    <trip id="130" depart="91.00" from="24872818#1" to="616728353#2"/>
    <trip id="131" depart="91.70" from="220713052#1" to="24873135#1"/>
    <trip id="132" depart="92.40" from="67830147#4" to="24873352#1"/>
    <trip id="133" depart="93.10" from="24872818#1" to="24873029#2"/>
    <trip id="134" depart="93.80" from="24873029#1" to="616665186#6"/>
    <trip id="135" depart="94.50" from="24872818#0" to="616728353#4"/>
    <trip id="136" depart="95.20" from="24873135#8" to="67830147#3"/>
    <trip id="137" depart="95.90" from="616728353#2" to="24873135#5"/>
    <trip id="138" depart="96.60" from="24873029#2" to="345400674#0"/>
    <trip id="139" depart="97.30" from="24872818#0" to="616665186#1"/>
    <trip id="140" depart="98.00" from="220713052#1" to="220713052#1"/>
    <trip id="141" depart="98.70" from="67830147#3" to="24873135#5"/>
    <trip id="142" depart="99.40" from="616416990#2" to="325152995#0"/>
    <trip id="143" depart="100.10" from="24873135#2" to="24872941#1"/>
    <trip id="144" depart="100.80" from="616728353#2" to="67830147#3"/>
    <trip id="145" depart="101.50" from="67830147#2" to="24872979#1"/>
    <trip id="146" depart="102.20" from="24872979#2" to="616665181#2"/>
    <trip id="147" depart="102.90" from="67830147#3" to="395300661#1"/>
    <trip id="148" depart="103.60" from="616665186#1" to="616665186#10"/>
    <trip id="149" depart="104.30" from="24873029#3" to="395300661#1"/>
    <trip id="150" depart="105.00" from="24873135#2" to="24873135#1"/>
    <trip id="151" depart="105.70" from="24866873#0" to="24873135#4"/>
    <trip id="152" depart="106.40" from="67830147#3" to="325152995#0"/>
    <trip id="153" depart="107.10" from="616665181#3" to="616665181#4"/>
    <trip id="154" depart="107.80" from="67830147#0" to="24873225#1"/>
    <trip id="155" depart="108.50" from="24873135#2" to="24873135#7"/>
    <trip id="156" depart="109.20" from="24873135#3" to="616728344#5"/>
    <trip id="157" depart="109.90" from="616728353#1" to="24873135#5"/>
    <trip id="158" depart="110.60" from="24873135#4" to="395300661#1"/>
    <trip id="159" depart="111.30" from="616416990#1" to="616665181#1"/>
    <trip id="160" depart="112.00" from="24873029#2" to="220713052#2"/>
    <trip id="161" depart="112.70" from="24873029#2" to="24872941#2"/>
    <trip id="162" depart="113.40" from="395300661#0" to="24872941#2"/>
    <trip id="163" depart="114.10" from="24866873#0" to="616665181#4"/>
    <trip id="164" depart="114.80" from="24873135#0" to="616728344#1"/>
    <trip id="165" depart="115.50" from="324171519#0" to="616728351"/>
    <trip id="166" depart="116.20" from="24872941#2" to="345400674#2"/>
    <trip id="167" depart="116.90" from="616665186#8" to="24872941#2"/>
    <trip id="168" depart="117.60" from="67830147#0" to="24873029#3"/>
    <trip id="169" depart="118.30" from="616665186#6" to="67830147#4"/>
    <trip id="170" depart="119.00" from="616728344#1" to="24873135#7"/>
    <trip id="171" depart="119.70" from="24872818#0" to="345400675#0"/>
    <trip id="172" depart="120.40" from="616728353#3" to="24873135#5"/>
    <trip id="173" depart="121.10" from="616728353#1" to="24872979#3"/>
    <trip id="174" depart="121.80" from="616728353#2" to="24866873#0"/>
    <trip id="175" depart="122.50" from="24873135#2" to="616728353#3"/>
    <trip id="176" depart="123.20" from="616665186#9" to="616728353#3"/>
    <trip id="177" depart="123.90" from="616728344#2" to="616665186#6"/>
    <trip id="178" depart="124.60" from="616665186#1" to="24873029#3"/>
    <trip id="179" depart="125.30" from="24873225#0" to="24873029#1"/>
    <trip id="180" depart="126.00" from="616665186#12" to="616665186#11"/>
    <trip id="181" depart="126.70" from="24873029#2" to="24872941#1"/>
    <trip id="182" depart="127.40" from="67830147#1" to="616728344#2"/>
    <trip id="183" depart="128.10" from="395300661#0" to="395300661#1"/>
    <trip id="184" depart="128.80" from="616728344#3" to="325152995#0"/>
    <trip id="185" depart="129.50" from="24873135#9" to="24873135#8"/>
    <trip id="186" depart="130.20" from="24873029#3" to="220713052#2"/>
    <trip id="187" depart="130.90" from="616665181#2" to="24873352#1"/>
    <trip id="188" depart="131.60" from="616416990#0" to="24872941#1"/>
    <trip id="189" depart="132.30" from="24873135#6" to="24872979#3"/>
    <trip id="190" depart="133.00" from="24872941#0" to="24873135#2"/>
    <trip id="191" depart="133.70" from="616728344#1" to="24873352#0"/>
    <trip id="192" depart="134.40" from="24873135#9" to="616665181#2"/>
    <trip id="193" depart="135.10" from="24873029#1" to="220713052#1"/>
    <trip id="194" depart="135.80" from="345400674#1" to="345400674#2"/>
    <trip id="195" depart="136.50" from="616665181#2" to="324171519#1"/>
    <trip id="196" depart="137.20" from="616665186#1" to="616665186#5"/>
    <trip id="197" depart="137.90" from="24873029#1" to="345400674#1"/>
    <trip id="198" depart="138.60" from="24873352#1" to="24873135#0"/>
    <trip id="199" depart="139.30" from="24873182" to="616416990#1"/>
    <trip id="200" depart="140.00" from="616728353#2" to="616728353#4"/>
    <trip id="201" depart="140.70" from="24873029#4" to="616665186#1"/>
    <trip id="202" depart="141.40" from="220713052#1" to="24872941#2"/>
    <trip id="203" depart="142.10" from="345400674#0" to="616728353#1"/>
    <trip id="204" depart="142.80" from="24872941#3" to="616665186#8"/>
    <trip id="205" depart="143.50" from="616728353#0" to="24873135#6"/>
    <trip id="206" depart="144.20" from="616665186#1" to="616728344#5"/>
    <trip id="207" depart="144.90" from="24873135#7" to="616665186#14"/>
    <trip id="208" depart="145.60" from="616665186#2" to="616665181#1"/>
    <trip id="209" depart="146.30" from="616728344#4" to="616728353#3"/>
    <trip id="210" depart="147.00" from="67830147#1" to="616416990#2"/>
    <trip id="211" depart="147.70" from="24872941#4" to="24873135#2"/>
    <trip id="212" depart="148.40" from="24872979#2" to="616416990#2"/>
    <trip id="213" depart="149.10" from="616665186#4" to="24872818#1"/>
    <trip id="214" depart="149.80" from="616665186#0" to="616665186#3"/>
    <trip id="215" depart="150.50" from="24873135#5" to="345400675#0"/>
    <trip id="216" depart="151.20" from="24872941#3" to="616665186#5"/>
    <trip id="217" depart="151.90" from="220713052#1" to="67830147#4"/>
    <trip id="218" depart="152.60" from="616728344#0" to="616665181#3"/>
    <trip id="219" depart="153.30" from="24873029#3" to="616728353#4"/>
    <trip id="220" depart="154.00" from="67830147#1" to="24872979#3"/>
    <trip id="221" depart="154.70" from="616665186#6" to="616728344#5"/>
    <trip id="222" depart="155.40" from="616665181#3" to="616665186#14"/>
    <trip id="223" depart="156.10" from="24873225#1" to="616728353#5"/>
    <trip id="224" depart="156.80" from="67830147#2" to="24873225#1"/>
    <trip id="225" depart="157.50" from="616665186#9" to="324171519#1"/>
    <trip id="226" depart="158.20" from="24872941#3" to="24873135#7"/>
    <trip id="227" depart="158.90" from="24872941#0" to="616728353#4"/>
    <trip id="228" depart="159.60" from="67830147#1" to="24872979#2"/>
    <trip id="229" depart="160.30" from="616416990#2" to="24873352#0"/>
    <trip id="230" depart="161.00" from="24872818#1" to="24873135#5"/>
    <trip id="231" depart="161.70" from="24873029#2" to="616665186#7"/>
    <trip id="232" depart="162.40" from="-24873357" to="24873029#4"/>
    <trip id="233" depart="163.10" from="24873225#1" to="220713052#2"/>
    <trip id="234" depart="163.80" from="616665181#1" to="616665181#1"/>
    <trip id="235" depart="164.50" from="616728344#2" to="24873029#5"/>
    <trip id="236" depart="165.20" from="24873135#0" to="395300661#1"/>
    <trip id="237" depart="165.90" from="24873029#4" to="616416990#3"/>
    <trip id="238" depart="166.60" from="24873029#2" to="616665186#13"/>
    <trip id="239" depart="167.30" from="616665186#8" to="616728344#2"/>
    <trip id="240" depart="168.00" from="67830147#2" to="395300661#1"/>
    <trip id="241" depart="168.70" from="324171519#0" to="616728351"/>
    <trip id="242" depart="169.40" from="616665186#5" to="616416990#2"/>
    <trip id="243" depart="170.10" from="24873135#8" to="24873135#4"/>
    <trip id="244" depart="170.80" from="24872818#0" to="616728344#2"/>
    <trip id="245" depart="171.50" from="24872818#1" to="616665186#6"/>
    <trip id="246" depart="172.20" from="395300661#0" to="67830147#3"/>
    <trip id="247" depart="172.90" from="616665186#4" to="67830147#3"/>
    <trip id="248" depart="173.60" from="24872941#1" to="345400674#2"/>
    <trip id="249" depart="174.30" from="616416990#0" to="24873135#6"/>
    <trip id="250" depart="175.00" from="325152995#0" to="24873200#0"/>
    <trip id="251" depart="175.70" from="345400674#1" to="220713052#1"/>
    <trip id="252" depart="176.40" from="24873225#1" to="325152995#0"/>
    <trip id="253" depart="177.10" from="24873135#2" to="24873352#0"/>
    <trip id="254" depart="177.80" from="616665186#7" to="616665186#13"/>
    <trip id="255" depart="178.50" from="324171519#0" to="616665186#1"/>
    <trip id="256" depart="179.20" from="24873135#7" to="24873029#5"/>
    <trip id="257" depart="179.90" from="-24873357" to="24873135#4"/>
    <trip id="258" depart="180.60" from="616416990#2" to="616728353#2"/>
    <trip id="259" depart="181.30" from="616728344#1" to="345400675#0"/>
    <trip id="260" depart="182.00" from="67830147#3" to="325152995#1"/>
    <trip id="261" depart="182.70" from="616728344#2" to="24873352#1"/>
    <trip id="262" depart="183.40" from="616665186#2" to="744252705"/>
    <trip id="263" depart="184.10" from="24873135#2" to="24873029#2"/>
    <trip id="264" depart="184.80" from="616665181#0" to="345400676"/>
    <trip id="265" depart="185.50" from="24873135#6" to="220713052#1"/>
    <trip id="266" depart="186.20" from="24873135#8" to="324171519#0"/>
    <trip id="267" depart="186.90" from="24873182" to="616728351"/>
    <trip id="268" depart="187.60" from="616416990#1" to="616665186#5"/>
    <trip id="269" depart="188.30" from="616728353#1" to="616665186#7"/>
    <trip id="270" depart="189.00" from="324171519#0" to="616665186#6"/>
    <trip id="271" depart="189.70" from="616665181#2" to="616665186#1"/>
    <trip id="272" depart="190.40" from="616665181#1" to="24873352#0"/>
    <trip id="273" depart="191.10" from="616665181#1" to="616665181#4"/>
    <trip id="274" depart="191.80" from="616728353#4" to="616728344#0"/>
    <trip id="275" depart="192.50" from="616728344#3" to="616665186#9"/>
    <trip id="276" depart="193.20" from="616728344#0" to="616665181#1"/>
    <trip id="277" depart="193.90" from="24873135#5" to="24873135#3"/>
    <trip id="278" depart="194.60" from="616665186#11" to="616728353#1"/>
    <trip id="279" depart="195.30" from="395300661#0" to="24873029#1"/>
    <trip id="280" depart="196.00" from="616728344#2" to="345400674#1"/>
    <trip id="281" depart="196.70" from="24873352#0" to="24872818#1"/>
    <trip id="282" depart="197.40" from="345400674#0" to="616665186#6"/>
    <trip id="283" depart="198.10" from="24873200#0" to="24873135#9"/>
    <trip id="284" depart="198.80" from="616665181#3" to="220713052#2"/>
    <trip id="285" depart="199.50" from="325152995#0" to="67830147#1"/>
    <trip id="286" depart="200.20" from="616665186#1" to="24873352#0"/>
    <trip id="287" depart="200.90" from="616665186#1" to="616665181#1"/>
    <trip id="288" depart="201.60" from="24872979#2" to="24873029#5"/>
    <trip id="289" depart="202.30" from="616728353#0" to="24873135#3"/>
    <trip id="290" depart="203.00" from="24866873#0" to="616728344#4"/>
    <trip id="291" depart="203.70" from="345400674#1" to="24873200#0"/>
    <trip id="292" depart="204.40" from="345400674#0" to="616665186#5"/>
    <trip id="293" depart="205.10" from="24872941#3" to="616665186#1"/>
    <trip id="294" depart="205.80" from="616665186#12" to="616728344#2"/>
    <trip id="295" depart="206.50" from="24873029#4" to="616665181#2"/>
    <trip id="296" depart="207.20" from="24873029#1" to="616416990#1"/>
    <trip id="297" depart="207.90" from="24872941#4" to="616728344#1"/>
    <trip id="298" depart="208.60" from="616728344#5" to="24873135#8"/>
    <trip id="299" depart="209.30" from="24873029#0" to="67830147#3"/>
    <trip id="300" depart="210.00" from="616665186#11" to="616728344#5"/>
    <trip id="301" depart="210.70" from="220713052#0" to="616728353#3"/>
    <trip id="302" depart="211.40" from="616665181#0" to="24873135#7"/>
    <trip id="303" depart="212.10" from="24873225#0" to="616665186#8"/>
    <trip id="304" depart="212.80" from="616665186#7" to="24873029#4"/>
    <trip id="305" depart="213.50" from="616665181#0" to="24873029#2"/>
    <trip id="306" depart="214.20" from="67830147#2" to="325152995#0"/>
    <trip id="307" depart="214.90" from="616728353#2" to="616665186#4"/>
    <trip id="308" depart="215.60" from="616416990#3" to="24873135#2"/>
    <trip id="309" depart="216.30" from="345400674#1" to="24872979#3"/>
    <trip id="310" depart="217.00" from="24872941#1" to="616665186#3"/>
    <trip id="311" depart="217.70" from="24873135#6" to="616665186#7"/>
    <trip id="312" depart="218.40" from="24873029#1" to="616665186#3"/>
    <trip id="313" depart="219.10" from="616665186#12" to="24873135#6"/>
    <trip id="314" depart="219.80" from="24872818#0" to="24873352#0"/>
    <trip id="315" depart="220.50" from="324171519#0" to="24872941#4"/>
    <trip id="316" depart="221.20" from="24872979#0" to="24872941#1"/>
    <trip id="317" depart="221.90" from="616416990#2" to="616728353#2"/>
    <trip id="318" depart="222.60" from="24872979#2" to="24866873#0"/>
    <trip id="319" depart="223.30" from="616665186#11" to="616728344#2"/>
    <trip id="320" depart="224.00" from="67830147#2" to="616665181#2"/>
    <trip id="321" depart="224.70" from="24873135#5" to="616728344#4"/>
    <trip id="322" depart="225.40" from="24872818#1" to="616665186#14"/>
    <trip id="323" depart="226.10" from="24866873#1" to="24873352#0"/>
    <trip id="324" depart="226.80" from="324171519#0" to="24873200#1"/>
    <trip id="325" depart="227.50" from="24872941#3" to="24873135#0"/>
    <trip id="326" depart="228.20" from="616728344#1" to="325152995#1"/>
    <trip id="327" depart="228.90" from="616416990#1" to="24873078"/>
    <trip id="328" depart="229.60" from="616665186#12" to="24873135#8"/>
    <trip id="329" depart="230.30" from="616416990#2" to="616728353#4"/>
    <trip id="330" depart="231.00" from="67830147#4" to="24872818#1"/>
    <trip id="331" depart="231.70" from="616665186#9" to="616728351"/>
    <trip id="332" depart="232.40" from="24873135#3" to="24873225#1"/>
    <trip id="333" depart="233.10" from="616416990#1" to="616728353#4"/>
    <trip id="334" depart="233.80" from="24873135#9" to="616728353#1"/>
    <trip id="335" depart="234.50" from="616665186#4" to="24873029#1"/>
    <trip id="336" depart="235.20" from="616728353#2" to="220713052#2"/>
    <trip id="337" depart="235.90" from="24872941#1" to="616665186#11"/>
    <trip id="338" depart="236.60" from="220713052#2" to="24873200#1"/>
    <trip id="339" depart="237.30" from="24872941#0" to="325152995#1"/>
    <trip id="340" depart="238.00" from="616728344#2" to="616728353#3"/>
    <trip id="341" depart="238.70" from="220713052#0" to="24872941#1"/>
    <trip id="342" depart="239.40" from="616728344#2" to="24872818#1"/>
    <trip id="343" depart="240.10" from="24873029#4" to="24872979#1"/>
    <trip id="344" depart="240.80" from="24866873#1" to="24866873#0"/>
    <trip id="345" depart="241.50" from="616665181#1" to="616665186#6"/>
    <trip id="346" depart="242.20" from="616665186#1" to="616728344#5"/>
    <trip id="347" depart="242.90" from="616665181#3" to="24873225#1"/>
    <trip id="348" depart="243.60" from="616665181#1" to="67830147#3"/>
    <trip id="349" depart="244.30" from="616665181#2" to="24873135#1"/>
    <trip id="350" depart="245.00" from="220713052#2" to="67830147#1"/>
    <trip id="351" depart="245.70" from="616416990#1" to="24873135#9"/>
    <trip id="352" depart="246.40" from="616416990#3" to="616416990#1"/>
    <trip id="353" depart="247.10" from="345400674#1" to="24872941#1"/>
    <trip id="354" depart="247.80" from="24873135#6" to="24873352#1"/>
    <trip id="355" depart="248.50" from="24872979#1" to="616728353#1"/>
    <trip id="356" depart="249.20" from="24873200#0" to="616665186#10"/>
    <trip id="357" depart="249.90" from="616665186#12" to="616665186#6"/>
    <trip id="358" depart="250.60" from="616665186#13" to="616665186#7"/>
    <trip id="359" depart="251.30" from="24873029#2" to="67830147#4"/>
    <trip id="360" depart="252.00" from="24872941#2" to="616728353#4"/>
    <trip id="361" depart="252.70" from="616728344#4" to="616728344#5"/>
    <trip id="362" depart="253.40" from="220713052#2" to="24872941#3"/>
    <trip id="363" depart="254.10" from="616728344#0" to="345400674#0"/>
    <trip id="364" depart="254.80" from="24873135#7" to="67830147#4"/>
    <trip id="365" depart="255.50" from="220713052#1" to="345400676"/>
    <trip id="366" depart="256.20" from="24873225#1" to="24872979#2"/>
    <trip id="367" depart="256.90" from="24873135#9" to="616665186#2"/>
    <trip id="368" depart="257.60" from="616728353#0" to="220713052#2"/>
    <trip id="369" depart="258.30" from="345400674#1" to="24872941#3"/>
    <trip id="370" depart="259.00" from="616665186#9" to="24872941#3"/>
    <trip id="371" depart="259.70" from="220713052#0" to="24873225#1"/>
    <trip id="372" depart="260.40" from="616665186#14" to="24873135#6"/>
    <trip id="373" depart="261.10" from="24872941#0" to="616728344#1"/>
    <trip id="374" depart="261.80" from="616728344#0" to="616728351"/>
    <trip id="375" depart="262.50" from="24873135#1" to="324171519#0"/>
    <trip id="376" depart="263.20" from="24873029#2" to="616416990#1"/>
    <trip id="377" depart="263.90" from="24873135#4" to="24873135#8"/>
    <trip id="378" depart="264.60" from="616665186#7" to="67830147#2"/>
    <trip id="379" depart="265.30" from="616416990#1" to="24872941#4"/>
    <trip id="380" depart="266.00" from="616665181#3" to="325152995#0"/>
    <trip id="381" depart="266.70" from="67830147#4" to="616665186#3"/>
    <trip id="382" depart="267.40" from="616728344#2" to="616665186#14"/>
    <trip id="383" depart="268.10" from="345400675#0" to="616728353#3"/>
    <trip id="384" depart="268.80" from="616728344#2" to="24873135#5"/>
    <trip id="385" depart="269.50" from="24872941#2" to="24873200#1"/>
    <trip id="386" depart="270.20" from="345400674#0" to="24872941#4"/>
    <trip id="387" depart="270.90" from="24873135#5" to="616416990#2"/>
    <trip id="388" depart="271.60" from="220713052#1" to="616728344#2"/>
    <trip id="389" depart="272.30" from="616665181#2" to="24873135#6"/>
    <trip id="390" depart="273.00" from="24873135#1" to="24873135#9"/>
    <trip id="391" depart="273.70" from="24873135#3" to="616665186#7"/>
    <trip id="392" depart="274.40" from="325152995#0" to="345400675#1"/>
    <trip id="393" depart="275.10" from="24872941#2" to="616728353#4"/>
    <trip id="394" depart="275.80" from="24873135#3" to="24873135#7"/>
    <trip id="395" depart="276.50" from="24858788" to="67830147#4"/>
    <trip id="396" depart="277.20" from="24873352#1" to="616728353#4"/>
    <trip id="397" depart="277.90" from="616728353#4" to="67830147#3"/>
    <trip id="398" depart="278.60" from="616728344#0" to="616728353#5"/>
    <trip id="399" depart="279.30" from="616728353#3" to="616728344#1"/>
    <trip id="400" depart="280.00" from="24872941#1" to="345400675#1"/>
    <trip id="401" depart="280.70" from="616416990#0" to="744252705"/>
    <trip id="402" depart="281.40" from="616665186#7" to="616665186#2"/>
    <trip id="403" depart="282.10" from="616665186#3" to="24873200#0"/>
    <trip id="404" depart="282.80" from="67830147#0" to="616665181#4"/>
    <trip id="405" depart="283.50" from="24873182" to="325152995#1"/>
    <trip id="406" depart="284.20" from="67830147#3" to="345400676"/>
    <trip id="407" depart="284.90" from="24872941#3" to="24873029#1"/>
    <trip id="408" depart="285.60" from="616665186#1" to="616416990#1"/>
    <trip id="409" depart="286.30" from="616728353#2" to="24873029#4"/>
    <trip id="410" depart="287.00" from="24873182" to="616665186#4"/>
    <trip id="411" depart="287.70" from="220713052#2" to="24872941#4"/>
    <trip id="412" depart="288.40" from="395300661#0" to="24873135#3"/>
    <trip id="413" depart="289.10" from="24872818#0" to="24873135#2"/>
    <trip id="414" depart="289.80" from="616665181#1" to="345400675#1"/>